Global frequency set at 1000000000000 ticks per second
gem5 Simulator System.  https://www.gem5.org
gem5 is copyrighted software; use the --copyright option for details.

gem5 version 23.1.0.0
gem5 compiled Jan  6 2024 23:00:07
gem5 started Mar 16 2024 10:02:26
gem5 executing on codespaces-e36d0d, pid 89786
command line: gem5 --outdir=1-algorithm-1-cores-output run.py --cores=1 --algorithm=1

Initializing array and reseting result.
Done initializing.
Using a naive approach to sum up the array.
Beginning summation ...
Finished simulation.
Global frequency set at 1000000000000 ticks per second
gem5 Simulator System.  https://www.gem5.org
gem5 is copyrighted software; use the --copyright option for details.

gem5 version 23.1.0.0
gem5 compiled Jan  6 2024 23:00:07
gem5 started Mar 16 2024 10:02:44
gem5 executing on codespaces-e36d0d, pid 89885
command line: gem5 --outdir=2-algorithm-1-cores-output run.py --cores=1 --algorithm=2

Initializing array and reseting result.
Done initializing.
Chunking the array for summation.
Beginning summation ...
Finished simulation.
Global frequency set at 1000000000000 ticks per second
gem5 Simulator System.  https://www.gem5.org
gem5 is copyrighted software; use the --copyright option for details.

gem5 version 23.1.0.0
gem5 compiled Jan  6 2024 23:00:07
gem5 started Mar 16 2024 10:03:04
gem5 executing on codespaces-e36d0d, pid 90024
command line: gem5 --outdir=3-algorithm-1-cores-output run.py --cores=1 --algorithm=3

Initializing array and reseting result.
Done initializing.
Removing race condition on result.
Beginning summation ...
Finished simulation.
Global frequency set at 1000000000000 ticks per second
gem5 Simulator System.  https://www.gem5.org
gem5 is copyrighted software; use the --copyright option for details.

gem5 version 23.1.0.0
gem5 compiled Jan  6 2024 23:00:07
gem5 started Mar 16 2024 10:03:22
gem5 executing on codespaces-e36d0d, pid 90117
command line: gem5 --outdir=4-algorithm-1-cores-output run.py --cores=1 --algorithm=4

Initializing array and reseting result.
Done initializing.
Removing race condition on result and using chunking.
Beginning summation ...
Finished simulation.
Global frequency set at 1000000000000 ticks per second
gem5 Simulator System.  https://www.gem5.org
gem5 is copyrighted software; use the --copyright option for details.

gem5 version 23.1.0.0
gem5 compiled Jan  6 2024 23:00:07
gem5 started Mar 16 2024 10:03:41
gem5 executing on codespaces-e36d0d, pid 90214
command line: gem5 --outdir=5-algorithm-1-cores-output run.py --cores=1 --algorithm=5

Initializing array and reseting result.
Done initializing.
Removing race condition on cache blocks holding result array.
Beginning summation ...
Finished simulation.
Global frequency set at 1000000000000 ticks per second
gem5 Simulator System.  https://www.gem5.org
gem5 is copyrighted software; use the --copyright option for details.

gem5 version 23.1.0.0
gem5 compiled Jan  6 2024 23:00:07
gem5 started Mar 16 2024 10:03:59
gem5 executing on codespaces-e36d0d, pid 90322
command line: gem5 --outdir=6-algorithm-1-cores-output run.py --cores=1 --algorithm=6

Initializing array and reseting result.
Done initializing.
Removing race condition on cache blocks and using chunking to sum up the array.
Beginning summation ...
Finished simulation.
Global frequency set at 1000000000000 ticks per second
gem5 Simulator System.  https://www.gem5.org
gem5 is copyrighted software; use the --copyright option for details.

gem5 version 23.1.0.0
gem5 compiled Jan  6 2024 23:00:07
gem5 started Mar 16 2024 10:04:19
gem5 executing on codespaces-e36d0d, pid 90423
command line: gem5 --outdir=1-algorithm-2-cores-output run.py --cores=2 --algorithm=1

Initializing array and reseting result.
Done initializing.
Using a naive approach to sum up the array.
Beginning summation ...
Finished simulation.
Global frequency set at 1000000000000 ticks per second
gem5 Simulator System.  https://www.gem5.org
gem5 is copyrighted software; use the --copyright option for details.

gem5 version 23.1.0.0
gem5 compiled Jan  6 2024 23:00:07
gem5 started Mar 16 2024 10:04:41
gem5 executing on codespaces-e36d0d, pid 90550
command line: gem5 --outdir=2-algorithm-2-cores-output run.py --cores=2 --algorithm=2

Initializing array and reseting result.
Done initializing.
Chunking the array for summation.
Beginning summation ...
Finished simulation.
Global frequency set at 1000000000000 ticks per second
gem5 Simulator System.  https://www.gem5.org
gem5 is copyrighted software; use the --copyright option for details.

gem5 version 23.1.0.0
gem5 compiled Jan  6 2024 23:00:07
gem5 started Mar 16 2024 10:05:05
gem5 executing on codespaces-e36d0d, pid 90692
command line: gem5 --outdir=3-algorithm-2-cores-output run.py --cores=2 --algorithm=3

Initializing array and reseting result.
Done initializing.
Removing race condition on result.
Beginning summation ...
Finished simulation.
Global frequency set at 1000000000000 ticks per second
gem5 Simulator System.  https://www.gem5.org
gem5 is copyrighted software; use the --copyright option for details.

gem5 version 23.1.0.0
gem5 compiled Jan  6 2024 23:00:07
gem5 started Mar 16 2024 10:05:27
gem5 executing on codespaces-e36d0d, pid 90820
command line: gem5 --outdir=4-algorithm-2-cores-output run.py --cores=2 --algorithm=4

Initializing array and reseting result.
Done initializing.
Removing race condition on result and using chunking.
Beginning summation ...
Finished simulation.
Global frequency set at 1000000000000 ticks per second
gem5 Simulator System.  https://www.gem5.org
gem5 is copyrighted software; use the --copyright option for details.

gem5 version 23.1.0.0
gem5 compiled Jan  6 2024 23:00:07
gem5 started Mar 16 2024 10:05:51
gem5 executing on codespaces-e36d0d, pid 90954
command line: gem5 --outdir=5-algorithm-2-cores-output run.py --cores=2 --algorithm=5

Initializing array and reseting result.
Done initializing.
Removing race condition on cache blocks holding result array.
Beginning summation ...
Finished simulation.
Global frequency set at 1000000000000 ticks per second
gem5 Simulator System.  https://www.gem5.org
gem5 is copyrighted software; use the --copyright option for details.

gem5 version 23.1.0.0
gem5 compiled Jan  6 2024 23:00:07
gem5 started Mar 16 2024 10:06:12
gem5 executing on codespaces-e36d0d, pid 91086
command line: gem5 --outdir=6-algorithm-2-cores-output run.py --cores=2 --algorithm=6

Initializing array and reseting result.
Done initializing.
Removing race condition on cache blocks and using chunking to sum up the array.
Beginning summation ...
Finished simulation.
Global frequency set at 1000000000000 ticks per second
gem5 Simulator System.  https://www.gem5.org
gem5 is copyrighted software; use the --copyright option for details.

gem5 version 23.1.0.0
gem5 compiled Jan  6 2024 23:00:07
gem5 started Mar 16 2024 10:06:33
gem5 executing on codespaces-e36d0d, pid 91213
command line: gem5 --outdir=1-algorithm-4-cores-output run.py --cores=4 --algorithm=1

Initializing array and reseting result.
Done initializing.
Using a naive approach to sum up the array.
Beginning summation ...
Finished simulation.
Global frequency set at 1000000000000 ticks per second
gem5 Simulator System.  https://www.gem5.org
gem5 is copyrighted software; use the --copyright option for details.

gem5 version 23.1.0.0
gem5 compiled Jan  6 2024 23:00:07
gem5 started Mar 16 2024 10:07:00
gem5 executing on codespaces-e36d0d, pid 91381
command line: gem5 --outdir=2-algorithm-4-cores-output run.py --cores=4 --algorithm=2

Initializing array and reseting result.
Done initializing.
Chunking the array for summation.
Beginning summation ...
Finished simulation.
Global frequency set at 1000000000000 ticks per second
gem5 Simulator System.  https://www.gem5.org
gem5 is copyrighted software; use the --copyright option for details.

gem5 version 23.1.0.0
gem5 compiled Jan  6 2024 23:00:07
gem5 started Mar 16 2024 10:07:28
gem5 executing on codespaces-e36d0d, pid 91531
command line: gem5 --outdir=3-algorithm-4-cores-output run.py --cores=4 --algorithm=3

Initializing array and reseting result.
Done initializing.
Removing race condition on result.
Beginning summation ...
Finished simulation.
Global frequency set at 1000000000000 ticks per second
gem5 Simulator System.  https://www.gem5.org
gem5 is copyrighted software; use the --copyright option for details.

gem5 version 23.1.0.0
gem5 compiled Jan  6 2024 23:00:07
gem5 started Mar 16 2024 10:07:56
gem5 executing on codespaces-e36d0d, pid 91710
command line: gem5 --outdir=4-algorithm-4-cores-output run.py --cores=4 --algorithm=4

Initializing array and reseting result.
Done initializing.
Removing race condition on result and using chunking.
Beginning summation ...
Finished simulation.
Global frequency set at 1000000000000 ticks per second
gem5 Simulator System.  https://www.gem5.org
gem5 is copyrighted software; use the --copyright option for details.

gem5 version 23.1.0.0
gem5 compiled Jan  6 2024 23:00:07
gem5 started Mar 16 2024 10:08:23
gem5 executing on codespaces-e36d0d, pid 91903
command line: gem5 --outdir=5-algorithm-4-cores-output run.py --cores=4 --algorithm=5

Initializing array and reseting result.
Done initializing.
Removing race condition on cache blocks holding result array.
Beginning summation ...
Finished simulation.
Global frequency set at 1000000000000 ticks per second
gem5 Simulator System.  https://www.gem5.org
gem5 is copyrighted software; use the --copyright option for details.

gem5 version 23.1.0.0
gem5 compiled Jan  6 2024 23:00:07
gem5 started Mar 16 2024 10:08:48
gem5 executing on codespaces-e36d0d, pid 92086
command line: gem5 --outdir=6-algorithm-4-cores-output run.py --cores=4 --algorithm=6

Initializing array and reseting result.
Done initializing.
Removing race condition on cache blocks and using chunking to sum up the array.
Beginning summation ...
Finished simulation.
Global frequency set at 1000000000000 ticks per second
gem5 Simulator System.  https://www.gem5.org
gem5 is copyrighted software; use the --copyright option for details.

gem5 version 23.1.0.0
gem5 compiled Jan  6 2024 23:00:07
gem5 started Mar 16 2024 10:09:14
gem5 executing on codespaces-e36d0d, pid 92270
command line: gem5 --outdir=1-algorithm-8-cores-output run.py --cores=8 --algorithm=1

Initializing array and reseting result.
Done initializing.
Using a naive approach to sum up the array.
Beginning summation ...
Finished simulation.
Global frequency set at 1000000000000 ticks per second
gem5 Simulator System.  https://www.gem5.org
gem5 is copyrighted software; use the --copyright option for details.

gem5 version 23.1.0.0
gem5 compiled Jan  6 2024 23:00:07
gem5 started Mar 16 2024 10:09:51
gem5 executing on codespaces-e36d0d, pid 92548
command line: gem5 --outdir=2-algorithm-8-cores-output run.py --cores=8 --algorithm=2

Initializing array and reseting result.
Done initializing.
Chunking the array for summation.
Beginning summation ...
Finished simulation.
Global frequency set at 1000000000000 ticks per second
gem5 Simulator System.  https://www.gem5.org
gem5 is copyrighted software; use the --copyright option for details.

gem5 version 23.1.0.0
gem5 compiled Jan  6 2024 23:00:07
gem5 started Mar 16 2024 10:10:27
gem5 executing on codespaces-e36d0d, pid 92744
command line: gem5 --outdir=3-algorithm-8-cores-output run.py --cores=8 --algorithm=3

Initializing array and reseting result.
Done initializing.
Removing race condition on result.
Beginning summation ...
Finished simulation.
Global frequency set at 1000000000000 ticks per second
gem5 Simulator System.  https://www.gem5.org
gem5 is copyrighted software; use the --copyright option for details.

gem5 version 23.1.0.0
gem5 compiled Jan  6 2024 23:00:07
gem5 started Mar 16 2024 10:11:01
gem5 executing on codespaces-e36d0d, pid 92945
command line: gem5 --outdir=4-algorithm-8-cores-output run.py --cores=8 --algorithm=4

Initializing array and reseting result.
Done initializing.
Removing race condition on result and using chunking.
Beginning summation ...
Finished simulation.
Global frequency set at 1000000000000 ticks per second
gem5 Simulator System.  https://www.gem5.org
gem5 is copyrighted software; use the --copyright option for details.

gem5 version 23.1.0.0
gem5 compiled Jan  6 2024 23:00:07
gem5 started Mar 16 2024 10:11:35
gem5 executing on codespaces-e36d0d, pid 93124
command line: gem5 --outdir=5-algorithm-8-cores-output run.py --cores=8 --algorithm=5

Initializing array and reseting result.
Done initializing.
Removing race condition on cache blocks holding result array.
Beginning summation ...
Finished simulation.
Global frequency set at 1000000000000 ticks per second
gem5 Simulator System.  https://www.gem5.org
gem5 is copyrighted software; use the --copyright option for details.

gem5 version 23.1.0.0
gem5 compiled Jan  6 2024 23:00:07
gem5 started Mar 16 2024 10:12:07
gem5 executing on codespaces-e36d0d, pid 93315
command line: gem5 --outdir=6-algorithm-8-cores-output run.py --cores=8 --algorithm=6

Initializing array and reseting result.
Done initializing.
Removing race condition on cache blocks and using chunking to sum up the array.
Beginning summation ...
Finished simulation.
Global frequency set at 1000000000000 ticks per second
gem5 Simulator System.  https://www.gem5.org
gem5 is copyrighted software; use the --copyright option for details.

gem5 version 23.1.0.0
gem5 compiled Jan  6 2024 23:00:07
gem5 started Mar 16 2024 10:12:38
gem5 executing on codespaces-e36d0d, pid 93535
command line: gem5 --outdir=1-algorithm-16-cores-output run.py --cores=16 --algorithm=1

Initializing array and reseting result.
Done initializing.
Using a naive approach to sum up the array.
Beginning summation ...
Finished simulation.
Global frequency set at 1000000000000 ticks per second
gem5 Simulator System.  https://www.gem5.org
gem5 is copyrighted software; use the --copyright option for details.

gem5 version 23.1.0.0
gem5 compiled Jan  6 2024 23:00:07
gem5 started Mar 16 2024 10:13:36
gem5 executing on codespaces-e36d0d, pid 93951
command line: gem5 --outdir=2-algorithm-16-cores-output run.py --cores=16 --algorithm=2

Initializing array and reseting result.
Done initializing.
Chunking the array for summation.
Beginning summation ...
Finished simulation.
Global frequency set at 1000000000000 ticks per second
gem5 Simulator System.  https://www.gem5.org
gem5 is copyrighted software; use the --copyright option for details.

gem5 version 23.1.0.0
gem5 compiled Jan  6 2024 23:00:07
gem5 started Mar 16 2024 10:14:33
gem5 executing on codespaces-e36d0d, pid 94365
command line: gem5 --outdir=3-algorithm-16-cores-output run.py --cores=16 --algorithm=3

Initializing array and reseting result.
Done initializing.
Removing race condition on result.
Beginning summation ...
Finished simulation.
Global frequency set at 1000000000000 ticks per second
gem5 Simulator System.  https://www.gem5.org
gem5 is copyrighted software; use the --copyright option for details.

gem5 version 23.1.0.0
gem5 compiled Jan  6 2024 23:00:07
gem5 started Mar 16 2024 10:15:25
gem5 executing on codespaces-e36d0d, pid 94776
command line: gem5 --outdir=4-algorithm-16-cores-output run.py --cores=16 --algorithm=4

Initializing array and reseting result.
Done initializing.
Removing race condition on result and using chunking.
Beginning summation ...
Finished simulation.
Global frequency set at 1000000000000 ticks per second
gem5 Simulator System.  https://www.gem5.org
gem5 is copyrighted software; use the --copyright option for details.

gem5 version 23.1.0.0
gem5 compiled Jan  6 2024 23:00:07
gem5 started Mar 16 2024 10:16:17
gem5 executing on codespaces-e36d0d, pid 95199
command line: gem5 --outdir=5-algorithm-16-cores-output run.py --cores=16 --algorithm=5

Initializing array and reseting result.
Done initializing.
Removing race condition on cache blocks holding result array.
Beginning summation ...
Finished simulation.
Global frequency set at 1000000000000 ticks per second
gem5 Simulator System.  https://www.gem5.org
gem5 is copyrighted software; use the --copyright option for details.

gem5 version 23.1.0.0
gem5 compiled Jan  6 2024 23:00:07
gem5 started Mar 16 2024 10:17:05
gem5 executing on codespaces-e36d0d, pid 95612
command line: gem5 --outdir=6-algorithm-16-cores-output run.py --cores=16 --algorithm=6

Initializing array and reseting result.
Done initializing.
Removing race condition on cache blocks and using chunking to sum up the array.
Beginning summation ...
Finished simulation.
