Global frequency set at 1000000000000 ticks per second
gem5 Simulator System.  https://www.gem5.org
gem5 is copyrighted software; use the --copyright option for details.

gem5 version 23.1.0.0
gem5 compiled Jan  6 2024 23:00:07
gem5 started Mar 16 2024 09:01:05
gem5 executing on codespaces-e36d0d, pid 68172
command line: gem5 --outdir=1-algorithm-1-cores-output run.py --cores=1 --algorithm=1

Initializing array and reseting result.
Done initializing.
Using a naive approach to sum up the array.
Beginning summation ...
Finished simulation.
Global frequency set at 1000000000000 ticks per second
gem5 Simulator System.  https://www.gem5.org
gem5 is copyrighted software; use the --copyright option for details.

gem5 version 23.1.0.0
gem5 compiled Jan  6 2024 23:00:07
gem5 started Mar 16 2024 09:01:23
gem5 executing on codespaces-e36d0d, pid 68271
command line: gem5 --outdir=2-algorithm-1-cores-output run.py --cores=1 --algorithm=2

Initializing array and reseting result.
Done initializing.
Chunking the array for summation.
Beginning summation ...
Finished simulation.
Global frequency set at 1000000000000 ticks per second
gem5 Simulator System.  https://www.gem5.org
gem5 is copyrighted software; use the --copyright option for details.

gem5 version 23.1.0.0
gem5 compiled Jan  6 2024 23:00:07
gem5 started Mar 16 2024 09:01:42
gem5 executing on codespaces-e36d0d, pid 68362
command line: gem5 --outdir=3-algorithm-1-cores-output run.py --cores=1 --algorithm=3

Initializing array and reseting result.
Done initializing.
Removing race condition on result.
Beginning summation ...
Finished simulation.
Global frequency set at 1000000000000 ticks per second
gem5 Simulator System.  https://www.gem5.org
gem5 is copyrighted software; use the --copyright option for details.

gem5 version 23.1.0.0
gem5 compiled Jan  6 2024 23:00:07
gem5 started Mar 16 2024 09:02:00
gem5 executing on codespaces-e36d0d, pid 68475
command line: gem5 --outdir=4-algorithm-1-cores-output run.py --cores=1 --algorithm=4

Initializing array and reseting result.
Done initializing.
Removing race condition on result and using chunking.
Beginning summation ...
Finished simulation.
Global frequency set at 1000000000000 ticks per second
gem5 Simulator System.  https://www.gem5.org
gem5 is copyrighted software; use the --copyright option for details.

gem5 version 23.1.0.0
gem5 compiled Jan  6 2024 23:00:07
gem5 started Mar 16 2024 09:02:20
gem5 executing on codespaces-e36d0d, pid 68599
command line: gem5 --outdir=5-algorithm-1-cores-output run.py --cores=1 --algorithm=5

Initializing array and reseting result.
Done initializing.
Removing race condition on cache blocks holding result array.
Beginning summation ...
Finished simulation.
Global frequency set at 1000000000000 ticks per second
gem5 Simulator System.  https://www.gem5.org
gem5 is copyrighted software; use the --copyright option for details.

gem5 version 23.1.0.0
gem5 compiled Jan  6 2024 23:00:07
gem5 started Mar 16 2024 09:02:38
gem5 executing on codespaces-e36d0d, pid 68698
command line: gem5 --outdir=6-algorithm-1-cores-output run.py --cores=1 --algorithm=6

Initializing array and reseting result.
Done initializing.
Removing race condition on cache blocks and using chunking to sum up the array.
Beginning summation ...
Finished simulation.
Global frequency set at 1000000000000 ticks per second
gem5 Simulator System.  https://www.gem5.org
gem5 is copyrighted software; use the --copyright option for details.

gem5 version 23.1.0.0
gem5 compiled Jan  6 2024 23:00:07
gem5 started Mar 16 2024 09:02:57
gem5 executing on codespaces-e36d0d, pid 68831
command line: gem5 --outdir=1-algorithm-2-cores-output run.py --cores=2 --algorithm=1

Initializing array and reseting result.
Done initializing.
Using a naive approach to sum up the array.
Beginning summation ...
Finished simulation.
Global frequency set at 1000000000000 ticks per second
gem5 Simulator System.  https://www.gem5.org
gem5 is copyrighted software; use the --copyright option for details.

gem5 version 23.1.0.0
gem5 compiled Jan  6 2024 23:00:07
gem5 started Mar 16 2024 09:03:20
gem5 executing on codespaces-e36d0d, pid 68965
command line: gem5 --outdir=2-algorithm-2-cores-output run.py --cores=2 --algorithm=2

Initializing array and reseting result.
Done initializing.
Chunking the array for summation.
Beginning summation ...
Finished simulation.
Global frequency set at 1000000000000 ticks per second
gem5 Simulator System.  https://www.gem5.org
gem5 is copyrighted software; use the --copyright option for details.

gem5 version 23.1.0.0
gem5 compiled Jan  6 2024 23:00:07
gem5 started Mar 16 2024 09:03:44
gem5 executing on codespaces-e36d0d, pid 69093
command line: gem5 --outdir=3-algorithm-2-cores-output run.py --cores=2 --algorithm=3

Initializing array and reseting result.
Done initializing.
Removing race condition on result.
Beginning summation ...
Finished simulation.
Global frequency set at 1000000000000 ticks per second
gem5 Simulator System.  https://www.gem5.org
gem5 is copyrighted software; use the --copyright option for details.

gem5 version 23.1.0.0
gem5 compiled Jan  6 2024 23:00:07
gem5 started Mar 16 2024 09:04:06
gem5 executing on codespaces-e36d0d, pid 69238
command line: gem5 --outdir=4-algorithm-2-cores-output run.py --cores=2 --algorithm=4

Initializing array and reseting result.
Done initializing.
Removing race condition on result and using chunking.
Beginning summation ...
Finished simulation.
Global frequency set at 1000000000000 ticks per second
gem5 Simulator System.  https://www.gem5.org
gem5 is copyrighted software; use the --copyright option for details.

gem5 version 23.1.0.0
gem5 compiled Jan  6 2024 23:00:07
gem5 started Mar 16 2024 09:04:30
gem5 executing on codespaces-e36d0d, pid 69372
command line: gem5 --outdir=5-algorithm-2-cores-output run.py --cores=2 --algorithm=5

Initializing array and reseting result.
Done initializing.
Removing race condition on cache blocks holding result array.
Beginning summation ...
Finished simulation.
Global frequency set at 1000000000000 ticks per second
gem5 Simulator System.  https://www.gem5.org
gem5 is copyrighted software; use the --copyright option for details.

gem5 version 23.1.0.0
gem5 compiled Jan  6 2024 23:00:07
gem5 started Mar 16 2024 09:04:51
gem5 executing on codespaces-e36d0d, pid 69499
command line: gem5 --outdir=6-algorithm-2-cores-output run.py --cores=2 --algorithm=6

Initializing array and reseting result.
Done initializing.
Removing race condition on cache blocks and using chunking to sum up the array.
Beginning summation ...
Finished simulation.
Global frequency set at 1000000000000 ticks per second
gem5 Simulator System.  https://www.gem5.org
gem5 is copyrighted software; use the --copyright option for details.

gem5 version 23.1.0.0
gem5 compiled Jan  6 2024 23:00:07
gem5 started Mar 16 2024 09:05:13
gem5 executing on codespaces-e36d0d, pid 69632
command line: gem5 --outdir=1-algorithm-4-cores-output run.py --cores=4 --algorithm=1

Initializing array and reseting result.
Done initializing.
Using a naive approach to sum up the array.
Beginning summation ...
Finished simulation.
Global frequency set at 1000000000000 ticks per second
gem5 Simulator System.  https://www.gem5.org
gem5 is copyrighted software; use the --copyright option for details.

gem5 version 23.1.0.0
gem5 compiled Jan  6 2024 23:00:07
gem5 started Mar 16 2024 09:05:40
gem5 executing on codespaces-e36d0d, pid 69788
command line: gem5 --outdir=2-algorithm-4-cores-output run.py --cores=4 --algorithm=2

Initializing array and reseting result.
Done initializing.
Chunking the array for summation.
Beginning summation ...
Finished simulation.
Global frequency set at 1000000000000 ticks per second
gem5 Simulator System.  https://www.gem5.org
gem5 is copyrighted software; use the --copyright option for details.

gem5 version 23.1.0.0
gem5 compiled Jan  6 2024 23:00:07
gem5 started Mar 16 2024 09:06:07
gem5 executing on codespaces-e36d0d, pid 69943
command line: gem5 --outdir=3-algorithm-4-cores-output run.py --cores=4 --algorithm=3

Initializing array and reseting result.
Done initializing.
Removing race condition on result.
Beginning summation ...
Finished simulation.
Global frequency set at 1000000000000 ticks per second
gem5 Simulator System.  https://www.gem5.org
gem5 is copyrighted software; use the --copyright option for details.

gem5 version 23.1.0.0
gem5 compiled Jan  6 2024 23:00:07
gem5 started Mar 16 2024 09:06:34
gem5 executing on codespaces-e36d0d, pid 70086
command line: gem5 --outdir=4-algorithm-4-cores-output run.py --cores=4 --algorithm=4

Initializing array and reseting result.
Done initializing.
Removing race condition on result and using chunking.
Beginning summation ...
Finished simulation.
Global frequency set at 1000000000000 ticks per second
gem5 Simulator System.  https://www.gem5.org
gem5 is copyrighted software; use the --copyright option for details.

gem5 version 23.1.0.0
gem5 compiled Jan  6 2024 23:00:07
gem5 started Mar 16 2024 09:07:01
gem5 executing on codespaces-e36d0d, pid 70222
command line: gem5 --outdir=5-algorithm-4-cores-output run.py --cores=4 --algorithm=5

Initializing array and reseting result.
Done initializing.
Removing race condition on cache blocks holding result array.
Beginning summation ...
Finished simulation.
Global frequency set at 1000000000000 ticks per second
gem5 Simulator System.  https://www.gem5.org
gem5 is copyrighted software; use the --copyright option for details.

gem5 version 23.1.0.0
gem5 compiled Jan  6 2024 23:00:07
gem5 started Mar 16 2024 09:07:26
gem5 executing on codespaces-e36d0d, pid 70378
command line: gem5 --outdir=6-algorithm-4-cores-output run.py --cores=4 --algorithm=6

Initializing array and reseting result.
Done initializing.
Removing race condition on cache blocks and using chunking to sum up the array.
Beginning summation ...
Finished simulation.
Global frequency set at 1000000000000 ticks per second
gem5 Simulator System.  https://www.gem5.org
gem5 is copyrighted software; use the --copyright option for details.

gem5 version 23.1.0.0
gem5 compiled Jan  6 2024 23:00:07
gem5 started Mar 16 2024 09:07:51
gem5 executing on codespaces-e36d0d, pid 70519
command line: gem5 --outdir=1-algorithm-8-cores-output run.py --cores=8 --algorithm=1

Initializing array and reseting result.
Done initializing.
Using a naive approach to sum up the array.
Beginning summation ...
Finished simulation.
Global frequency set at 1000000000000 ticks per second
gem5 Simulator System.  https://www.gem5.org
gem5 is copyrighted software; use the --copyright option for details.

gem5 version 23.1.0.0
gem5 compiled Jan  6 2024 23:00:07
gem5 started Mar 16 2024 09:08:27
gem5 executing on codespaces-e36d0d, pid 70731
command line: gem5 --outdir=2-algorithm-8-cores-output run.py --cores=8 --algorithm=2

Initializing array and reseting result.
Done initializing.
Chunking the array for summation.
Beginning summation ...
Finished simulation.
Global frequency set at 1000000000000 ticks per second
gem5 Simulator System.  https://www.gem5.org
gem5 is copyrighted software; use the --copyright option for details.

gem5 version 23.1.0.0
gem5 compiled Jan  6 2024 23:00:07
gem5 started Mar 16 2024 09:09:03
gem5 executing on codespaces-e36d0d, pid 70926
command line: gem5 --outdir=3-algorithm-8-cores-output run.py --cores=8 --algorithm=3

Initializing array and reseting result.
Done initializing.
Removing race condition on result.
Beginning summation ...
Finished simulation.
Global frequency set at 1000000000000 ticks per second
gem5 Simulator System.  https://www.gem5.org
gem5 is copyrighted software; use the --copyright option for details.

gem5 version 23.1.0.0
gem5 compiled Jan  6 2024 23:00:07
gem5 started Mar 16 2024 09:09:37
gem5 executing on codespaces-e36d0d, pid 71100
command line: gem5 --outdir=4-algorithm-8-cores-output run.py --cores=8 --algorithm=4

Initializing array and reseting result.
Done initializing.
Removing race condition on result and using chunking.
Beginning summation ...
Finished simulation.
Global frequency set at 1000000000000 ticks per second
gem5 Simulator System.  https://www.gem5.org
gem5 is copyrighted software; use the --copyright option for details.

gem5 version 23.1.0.0
gem5 compiled Jan  6 2024 23:00:07
gem5 started Mar 16 2024 09:10:11
gem5 executing on codespaces-e36d0d, pid 71295
command line: gem5 --outdir=5-algorithm-8-cores-output run.py --cores=8 --algorithm=5

Initializing array and reseting result.
Done initializing.
Removing race condition on cache blocks holding result array.
Beginning summation ...
Finished simulation.
Global frequency set at 1000000000000 ticks per second
gem5 Simulator System.  https://www.gem5.org
gem5 is copyrighted software; use the --copyright option for details.

gem5 version 23.1.0.0
gem5 compiled Jan  6 2024 23:00:07
gem5 started Mar 16 2024 09:10:42
gem5 executing on codespaces-e36d0d, pid 71468
command line: gem5 --outdir=6-algorithm-8-cores-output run.py --cores=8 --algorithm=6

Initializing array and reseting result.
Done initializing.
Removing race condition on cache blocks and using chunking to sum up the array.
Beginning summation ...
Finished simulation.
Global frequency set at 1000000000000 ticks per second
gem5 Simulator System.  https://www.gem5.org
gem5 is copyrighted software; use the --copyright option for details.

gem5 version 23.1.0.0
gem5 compiled Jan  6 2024 23:00:07
gem5 started Mar 16 2024 09:11:13
gem5 executing on codespaces-e36d0d, pid 71645
command line: gem5 --outdir=1-algorithm-16-cores-output run.py --cores=16 --algorithm=1

Initializing array and reseting result.
Done initializing.
Using a naive approach to sum up the array.
Beginning summation ...
Finished simulation.
Global frequency set at 1000000000000 ticks per second
gem5 Simulator System.  https://www.gem5.org
gem5 is copyrighted software; use the --copyright option for details.

gem5 version 23.1.0.0
gem5 compiled Jan  6 2024 23:00:07
gem5 started Mar 16 2024 09:12:12
gem5 executing on codespaces-e36d0d, pid 71974
command line: gem5 --outdir=2-algorithm-16-cores-output run.py --cores=16 --algorithm=2

Initializing array and reseting result.
Done initializing.
Chunking the array for summation.
Beginning summation ...
Finished simulation.
Global frequency set at 1000000000000 ticks per second
gem5 Simulator System.  https://www.gem5.org
gem5 is copyrighted software; use the --copyright option for details.

gem5 version 23.1.0.0
gem5 compiled Jan  6 2024 23:00:07
gem5 started Mar 16 2024 09:13:08
gem5 executing on codespaces-e36d0d, pid 72275
command line: gem5 --outdir=3-algorithm-16-cores-output run.py --cores=16 --algorithm=3

Initializing array and reseting result.
Done initializing.
Removing race condition on result.
Beginning summation ...
Finished simulation.
Global frequency set at 1000000000000 ticks per second
gem5 Simulator System.  https://www.gem5.org
gem5 is copyrighted software; use the --copyright option for details.

gem5 version 23.1.0.0
gem5 compiled Jan  6 2024 23:00:07
gem5 started Mar 16 2024 09:14:01
gem5 executing on codespaces-e36d0d, pid 72618
command line: gem5 --outdir=4-algorithm-16-cores-output run.py --cores=16 --algorithm=4

Initializing array and reseting result.
Done initializing.
Removing race condition on result and using chunking.
Beginning summation ...
Finished simulation.
Global frequency set at 1000000000000 ticks per second
gem5 Simulator System.  https://www.gem5.org
gem5 is copyrighted software; use the --copyright option for details.

gem5 version 23.1.0.0
gem5 compiled Jan  6 2024 23:00:07
gem5 started Mar 16 2024 09:14:53
gem5 executing on codespaces-e36d0d, pid 72954
command line: gem5 --outdir=5-algorithm-16-cores-output run.py --cores=16 --algorithm=5

Initializing array and reseting result.
Done initializing.
Removing race condition on cache blocks holding result array.
Beginning summation ...
Finished simulation.
Global frequency set at 1000000000000 ticks per second
gem5 Simulator System.  https://www.gem5.org
gem5 is copyrighted software; use the --copyright option for details.

gem5 version 23.1.0.0
gem5 compiled Jan  6 2024 23:00:07
gem5 started Mar 16 2024 09:15:41
gem5 executing on codespaces-e36d0d, pid 73260
command line: gem5 --outdir=6-algorithm-16-cores-output run.py --cores=16 --algorithm=6

Initializing array and reseting result.
Done initializing.
Removing race condition on cache blocks and using chunking to sum up the array.
Beginning summation ...
Finished simulation.
