
---------- Begin Simulation Statistics ----------
simSeconds                                   0.000516                       # Number of seconds simulated (Second)
simTicks                                    516479000                       # Number of ticks simulated (Tick)
finalTick                                   788416000                       # Number of ticks from beginning of simulation (restored from checkpoints and never reset) (Tick)
simFreq                                  1000000000000                       # The number of ticks per simulated second ((Tick/Second))
hostSeconds                                     37.99                       # Real time elapsed on the host (Second)
hostTickRate                                 13595152                       # The number of ticks simulated per host second (ticks/s) ((Tick/Second))
hostMemory                                    1748512                       # Number of bytes of host memory used (Byte)
simInsts                                      1665816                       # Number of instructions simulated (Count)
simOps                                        2891396                       # Number of ops (including micro ops) simulated (Count)
hostInstRate                                    43849                       # Simulator instruction rate (inst/s) ((Count/Second))
hostOpRate                                      76109                       # Simulator op (including micro ops) rate (op/s) ((Count/Second))
board.cache_hierarchy.ruby_system.delayHistogram::bucket_size          256                       # delay histogram for all message (Unspecified)
board.cache_hierarchy.ruby_system.delayHistogram::max_bucket         2559                       # delay histogram for all message (Unspecified)
board.cache_hierarchy.ruby_system.delayHistogram::samples       152621                       # delay histogram for all message (Unspecified)
board.cache_hierarchy.ruby_system.delayHistogram::mean   464.981307                       # delay histogram for all message (Unspecified)
board.cache_hierarchy.ruby_system.delayHistogram::stdev   941.231776                       # delay histogram for all message (Unspecified)
board.cache_hierarchy.ruby_system.delayHistogram |      121371     79.52%     79.52% |         497      0.33%     79.85% |         742      0.49%     80.34% |         583      0.38%     80.72% |         677      0.44%     81.16% |         813      0.53%     81.69% |         897      0.59%     82.28% |         468      0.31%     82.59% |        2626      1.72%     84.31% |       23947     15.69%    100.00% # delay histogram for all message (Unspecified)
board.cache_hierarchy.ruby_system.delayHistogram::total       152621                       # delay histogram for all message (Unspecified)
board.cache_hierarchy.ruby_system.m_outstandReqHistSeqr::bucket_size            2                       (Unspecified)
board.cache_hierarchy.ruby_system.m_outstandReqHistSeqr::max_bucket           19                       (Unspecified)
board.cache_hierarchy.ruby_system.m_outstandReqHistSeqr::samples      1104592                       (Unspecified)
board.cache_hierarchy.ruby_system.m_outstandReqHistSeqr::mean     1.139884                       (Unspecified)
board.cache_hierarchy.ruby_system.m_outstandReqHistSeqr::gmean     1.097275                       (Unspecified)
board.cache_hierarchy.ruby_system.m_outstandReqHistSeqr::stdev     0.397548                       (Unspecified)
board.cache_hierarchy.ruby_system.m_outstandReqHistSeqr |      963771     87.25%     87.25% |      138328     12.52%     99.77% |        2187      0.20%     99.97% |         206      0.02%     99.99% |          70      0.01%    100.00% |          23      0.00%    100.00% |           5      0.00%    100.00% |           1      0.00%    100.00% |           1      0.00%    100.00% |           0      0.00%    100.00% (Unspecified)
board.cache_hierarchy.ruby_system.m_outstandReqHistSeqr::total      1104592                       (Unspecified)
board.cache_hierarchy.ruby_system.m_latencyHistSeqr::bucket_size          128                       (Unspecified)
board.cache_hierarchy.ruby_system.m_latencyHistSeqr::max_bucket         1279                       (Unspecified)
board.cache_hierarchy.ruby_system.m_latencyHistSeqr::samples      1104830                       (Unspecified)
board.cache_hierarchy.ruby_system.m_latencyHistSeqr::mean    12.015887                       (Unspecified)
board.cache_hierarchy.ruby_system.m_latencyHistSeqr::gmean     1.215044                       (Unspecified)
board.cache_hierarchy.ruby_system.m_latencyHistSeqr::stdev    63.330935                       (Unspecified)
board.cache_hierarchy.ruby_system.m_latencyHistSeqr |     1073086     97.13%     97.13% |        2140      0.19%     97.32% |        5620      0.51%     97.83% |       23973      2.17%    100.00% |           0      0.00%    100.00% |           3      0.00%    100.00% |           8      0.00%    100.00% |           0      0.00%    100.00% |           0      0.00%    100.00% |           0      0.00%    100.00% (Unspecified)
board.cache_hierarchy.ruby_system.m_latencyHistSeqr::total      1104830                       (Unspecified)
board.cache_hierarchy.ruby_system.m_hitLatencyHistSeqr::bucket_size           16                       (Unspecified)
board.cache_hierarchy.ruby_system.m_hitLatencyHistSeqr::max_bucket          159                       (Unspecified)
board.cache_hierarchy.ruby_system.m_hitLatencyHistSeqr::samples      1065009                       (Unspecified)
board.cache_hierarchy.ruby_system.m_hitLatencyHistSeqr::mean     1.000760                       (Unspecified)
board.cache_hierarchy.ruby_system.m_hitLatencyHistSeqr::gmean     1.000185                       (Unspecified)
board.cache_hierarchy.ruby_system.m_hitLatencyHistSeqr::stdev     0.228208                       (Unspecified)
board.cache_hierarchy.ruby_system.m_hitLatencyHistSeqr |     1065003    100.00%    100.00% |           0      0.00%    100.00% |           0      0.00%    100.00% |           1      0.00%    100.00% |           0      0.00%    100.00% |           2      0.00%    100.00% |           2      0.00%    100.00% |           1      0.00%    100.00% |           0      0.00%    100.00% |           0      0.00%    100.00% (Unspecified)
board.cache_hierarchy.ruby_system.m_hitLatencyHistSeqr::total      1065009                       (Unspecified)
board.cache_hierarchy.ruby_system.m_missLatencyHistSeqr::bucket_size          128                       (Unspecified)
board.cache_hierarchy.ruby_system.m_missLatencyHistSeqr::max_bucket         1279                       (Unspecified)
board.cache_hierarchy.ruby_system.m_missLatencyHistSeqr::samples        39821                       (Unspecified)
board.cache_hierarchy.ruby_system.m_missLatencyHistSeqr::mean   306.614450                       (Unspecified)
board.cache_hierarchy.ruby_system.m_missLatencyHistSeqr::gmean   221.232275                       (Unspecified)
board.cache_hierarchy.ruby_system.m_missLatencyHistSeqr::stdev   145.757218                       (Unspecified)
board.cache_hierarchy.ruby_system.m_missLatencyHistSeqr |        8077     20.28%     20.28% |        2140      5.37%     25.66% |        5620     14.11%     39.77% |       23973     60.20%     99.97% |           0      0.00%     99.97% |           3      0.01%     99.98% |           8      0.02%    100.00% |           0      0.00%    100.00% |           0      0.00%    100.00% |           0      0.00%    100.00% (Unspecified)
board.cache_hierarchy.ruby_system.m_missLatencyHistSeqr::total        39821                       (Unspecified)
board.cache_hierarchy.ruby_system.delayVCHist.vnet_0::bucket_size          256                       # delay histogram for vnet_0 (Unspecified)
board.cache_hierarchy.ruby_system.delayVCHist.vnet_0::max_bucket         2559                       # delay histogram for vnet_0 (Unspecified)
board.cache_hierarchy.ruby_system.delayVCHist.vnet_0::samples        76631                       # delay histogram for vnet_0 (Unspecified)
board.cache_hierarchy.ruby_system.delayVCHist.vnet_0::mean   925.994076                       # delay histogram for vnet_0 (Unspecified)
board.cache_hierarchy.ruby_system.delayVCHist.vnet_0::stdev  1156.533980                       # delay histogram for vnet_0 (Unspecified)
board.cache_hierarchy.ruby_system.delayVCHist.vnet_0 |       45381     59.22%     59.22% |         497      0.65%     59.87% |         742      0.97%     60.84% |         583      0.76%     61.60% |         677      0.88%     62.48% |         813      1.06%     63.54% |         897      1.17%     64.71% |         468      0.61%     65.32% |        2626      3.43%     68.75% |       23947     31.25%    100.00% # delay histogram for vnet_0 (Unspecified)
board.cache_hierarchy.ruby_system.delayVCHist.vnet_0::total        76631                       # delay histogram for vnet_0 (Unspecified)
board.cache_hierarchy.ruby_system.delayVCHist.vnet_1::bucket_size            4                       # delay histogram for vnet_1 (Unspecified)
board.cache_hierarchy.ruby_system.delayVCHist.vnet_1::max_bucket           39                       # delay histogram for vnet_1 (Unspecified)
board.cache_hierarchy.ruby_system.delayVCHist.vnet_1::samples        42240                       # delay histogram for vnet_1 (Unspecified)
board.cache_hierarchy.ruby_system.delayVCHist.vnet_1::mean     0.143419                       # delay histogram for vnet_1 (Unspecified)
board.cache_hierarchy.ruby_system.delayVCHist.vnet_1::stdev     1.157082                       # delay histogram for vnet_1 (Unspecified)
board.cache_hierarchy.ruby_system.delayVCHist.vnet_1 |       41515     98.28%     98.28% |         276      0.65%     98.94% |         357      0.85%     99.78% |          39      0.09%     99.87% |          35      0.08%     99.96% |           6      0.01%     99.97% |          10      0.02%    100.00% |           0      0.00%    100.00% |           2      0.00%    100.00% |           0      0.00%    100.00% # delay histogram for vnet_1 (Unspecified)
board.cache_hierarchy.ruby_system.delayVCHist.vnet_1::total        42240                       # delay histogram for vnet_1 (Unspecified)
board.cache_hierarchy.ruby_system.delayVCHist.vnet_2::bucket_size            1                       # delay histogram for vnet_2 (Unspecified)
board.cache_hierarchy.ruby_system.delayVCHist.vnet_2::max_bucket            9                       # delay histogram for vnet_2 (Unspecified)
board.cache_hierarchy.ruby_system.delayVCHist.vnet_2::samples        33750                       # delay histogram for vnet_2 (Unspecified)
board.cache_hierarchy.ruby_system.delayVCHist.vnet_2::mean     0.000059                       # delay histogram for vnet_2 (Unspecified)
board.cache_hierarchy.ruby_system.delayVCHist.vnet_2::stdev     0.010887                       # delay histogram for vnet_2 (Unspecified)
board.cache_hierarchy.ruby_system.delayVCHist.vnet_2 |       33749    100.00%    100.00% |           0      0.00%    100.00% |           1      0.00%    100.00% |           0      0.00%    100.00% |           0      0.00%    100.00% |           0      0.00%    100.00% |           0      0.00%    100.00% |           0      0.00%    100.00% |           0      0.00%    100.00% |           0      0.00%    100.00% # delay histogram for vnet_2 (Unspecified)
board.cache_hierarchy.ruby_system.delayVCHist.vnet_2::total        33750                       # delay histogram for vnet_2 (Unspecified)
board.cache_hierarchy.ruby_system.Directory_Controller.Fetch         1190      0.00%      0.00% (Unspecified)
board.cache_hierarchy.ruby_system.Directory_Controller.Memory_Data         1190      0.00%      0.00% (Unspecified)
board.cache_hierarchy.ruby_system.Directory_Controller.I.Fetch         1190      0.00%      0.00% (Unspecified)
board.cache_hierarchy.ruby_system.Directory_Controller.IM.Memory_Data         1190      0.00%      0.00% (Unspecified)
board.cache_hierarchy.ruby_system.L1Cache_Controller.Load |       13376      4.70%      4.70% |       17005      5.97%     10.67% |       16955      5.95%     16.63% |       16955      5.95%     22.58% |       16950      5.95%     28.53% |       16949      5.95%     34.49% |       16947      5.95%     40.44% |       16946      5.95%     46.39% |       16942      5.95%     52.34% |       16945      5.95%     58.29% |       16948      5.95%     64.24% |       16979      5.96%     70.21% |       16948      5.95%     76.16% |       16987      5.97%     82.13% |       16979      5.96%     88.09% |       16950      5.95%     94.04% |       16961      5.96%    100.00% (Unspecified)
board.cache_hierarchy.ruby_system.L1Cache_Controller.Load::total       284722                       (Unspecified)
board.cache_hierarchy.ruby_system.L1Cache_Controller.Ifetch |       21520      4.08%      4.08% |       31523      5.98%     10.07% |       31567      5.99%     16.06% |       31568      5.99%     22.05% |       31563      5.99%     28.04% |       31562      5.99%     34.03% |       31553      5.99%     40.02% |       31553      5.99%     46.01% |       31557      5.99%     52.00% |       31558      5.99%     57.99% |       31559      5.99%     63.98% |       31662      6.01%     69.99% |       31560      5.99%     75.98% |       31668      6.01%     81.99% |       31665      6.01%     88.00% |       31561      5.99%     93.99% |       31641      6.01%    100.00% (Unspecified)
board.cache_hierarchy.ruby_system.L1Cache_Controller.Ifetch::total       526840                       (Unspecified)
board.cache_hierarchy.ruby_system.L1Cache_Controller.Store |       22336      7.62%      7.62% |       17135      5.84%     13.46% |       16841      5.74%     19.20% |       16841      5.74%     24.94% |       16841      5.74%     30.69% |       16841      5.74%     36.43% |       16841      5.74%     42.17% |       16841      5.74%     47.91% |       16841      5.74%     53.66% |       16841      5.74%     59.40% |       16841      5.74%     65.14% |       17136      5.84%     70.98% |       16841      5.74%     76.73% |       17137      5.84%     82.57% |       17136      5.84%     88.41% |       16841      5.74%     94.16% |       17137      5.84%    100.00% (Unspecified)
board.cache_hierarchy.ruby_system.L1Cache_Controller.Store::total       293268                       (Unspecified)
board.cache_hierarchy.ruby_system.L1Cache_Controller.Inv |          81     30.92%     30.92% |          12      4.58%     35.50% |          13      4.96%     40.46% |          13      4.96%     45.42% |          11      4.20%     49.62% |          10      3.82%     53.44% |          11      4.20%     57.63% |          10      3.82%     61.45% |          11      4.20%     65.65% |          11      4.20%     69.85% |          13      4.96%     74.81% |          14      5.34%     80.15% |          12      4.58%     84.73% |          16      6.11%     90.84% |          12      4.58%     95.42% |           5      1.91%     97.33% |           7      2.67%    100.00% (Unspecified)
board.cache_hierarchy.ruby_system.L1Cache_Controller.Inv::total          262                       (Unspecified)
board.cache_hierarchy.ruby_system.L1Cache_Controller.L1_Replacement |         858     99.31%     99.31% |           2      0.23%     99.54% |           2      0.23%     99.77% |           2      0.23%    100.00% |           0      0.00%    100.00% |           0      0.00%    100.00% |           0      0.00%    100.00% |           0      0.00%    100.00% |           0      0.00%    100.00% |           0      0.00%    100.00% |           0      0.00%    100.00% |           0      0.00%    100.00% |           0      0.00%    100.00% |           0      0.00%    100.00% |           0      0.00%    100.00% |           0      0.00%    100.00% |           0      0.00%    100.00% (Unspecified)
board.cache_hierarchy.ruby_system.L1Cache_Controller.L1_Replacement::total          864                       (Unspecified)
board.cache_hierarchy.ruby_system.L1Cache_Controller.Fwd_GETX |          46      0.14%      0.14% |        1989      6.05%      6.19% |        2056      6.25%     12.44% |        2061      6.27%     18.71% |        2061      6.27%     24.98% |        2061      6.27%     31.25% |        2061      6.27%     37.51% |        2061      6.27%     43.78% |        2061      6.27%     50.05% |        2061      6.27%     56.32% |        2061      6.27%     62.59% |        2050      6.23%     68.82% |        2062      6.27%     75.09% |        2050      6.23%     81.33% |        2050      6.23%     87.56% |        2051      6.24%     93.80% |        2039      6.20%    100.00% (Unspecified)
board.cache_hierarchy.ruby_system.L1Cache_Controller.Fwd_GETX::total        32881                       (Unspecified)
board.cache_hierarchy.ruby_system.L1Cache_Controller.Fwd_GETS |         407     67.05%     67.05% |          19      3.13%     70.18% |          14      2.31%     72.49% |          13      2.14%     74.63% |          14      2.31%     76.94% |          14      2.31%     79.24% |          13      2.14%     81.38% |          13      2.14%     83.53% |          13      2.14%     85.67% |          13      2.14%     87.81% |          14      2.31%     90.12% |          11      1.81%     91.93% |          12      1.98%     93.90% |          11      1.81%     95.72% |          11      1.81%     97.53% |           7      1.15%     98.68% |           8      1.32%    100.00% (Unspecified)
board.cache_hierarchy.ruby_system.L1Cache_Controller.Fwd_GETS::total          607                       (Unspecified)
board.cache_hierarchy.ruby_system.L1Cache_Controller.Data |           1     25.00%     25.00% |           0      0.00%     25.00% |           0      0.00%     25.00% |           0      0.00%     25.00% |           0      0.00%     25.00% |           0      0.00%     25.00% |           0      0.00%     25.00% |           0      0.00%     25.00% |           0      0.00%     25.00% |           0      0.00%     25.00% |           0      0.00%     25.00% |           0      0.00%     25.00% |           0      0.00%     25.00% |           0      0.00%     25.00% |           2     50.00%     75.00% |           0      0.00%     75.00% |           1     25.00%    100.00% (Unspecified)
board.cache_hierarchy.ruby_system.L1Cache_Controller.Data::total            4                       (Unspecified)
board.cache_hierarchy.ruby_system.L1Cache_Controller.Data_Exclusive |          75      3.85%      3.85% |         138      7.08%     10.93% |         134      6.88%     17.81% |         133      6.83%     24.64% |         133      6.83%     31.47% |         133      6.83%     38.30% |         133      6.83%     45.12% |         133      6.83%     51.95% |         133      6.83%     58.78% |         133      6.83%     65.61% |         133      6.83%     72.43% |         132      6.78%     79.21% |         132      6.78%     85.99% |         127      6.52%     92.51% |          73      3.75%     96.25% |          34      1.75%     98.00% |          39      2.00%    100.00% (Unspecified)
board.cache_hierarchy.ruby_system.L1Cache_Controller.Data_Exclusive::total         1948                       (Unspecified)
board.cache_hierarchy.ruby_system.L1Cache_Controller.DataS_fromL1 |          58      9.56%      9.56% |          21      3.46%     13.01% |          27      4.45%     17.46% |          21      3.46%     20.92% |          18      2.97%     23.89% |          19      3.13%     27.02% |          16      2.64%     29.65% |          17      2.80%     32.45% |          16      2.64%     35.09% |          17      2.80%     37.89% |          16      2.64%     40.53% |          19      3.13%     43.66% |          17      2.80%     46.46% |          23      3.79%     50.25% |          76     12.52%     62.77% |         116     19.11%     81.88% |         110     18.12%    100.00% (Unspecified)
board.cache_hierarchy.ruby_system.L1Cache_Controller.DataS_fromL1::total          607                       (Unspecified)
board.cache_hierarchy.ruby_system.L1Cache_Controller.Data_all_Acks |         760      2.05%      2.05% |        2226      6.01%      8.06% |        2244      6.06%     14.12% |        2258      6.10%     20.21% |        2255      6.09%     26.30% |        2254      6.08%     32.39% |        2258      6.10%     38.48% |        2257      6.09%     44.58% |        2258      6.10%     50.67% |        2257      6.09%     56.77% |        2259      6.10%     62.86% |        2314      6.25%     69.11% |        2255      6.09%     75.20% |        2317      6.26%     81.45% |        2313      6.24%     87.70% |        2254      6.08%     93.78% |        2303      6.22%    100.00% (Unspecified)
board.cache_hierarchy.ruby_system.L1Cache_Controller.Data_all_Acks::total        37042                       (Unspecified)
board.cache_hierarchy.ruby_system.L1Cache_Controller.Ack |          42     16.28%     16.28% |          10      3.88%     20.16% |          13      5.04%     25.19% |          12      4.65%     29.84% |          12      4.65%     34.50% |          12      4.65%     39.15% |          13      5.04%     44.19% |          13      5.04%     49.22% |          13      5.04%     54.26% |          13      5.04%     59.30% |          13      5.04%     64.34% |          20      7.75%     72.09% |          16      6.20%     78.29% |          11      4.26%     82.56% |          13      5.04%     87.60% |          16      6.20%     93.80% |          16      6.20%    100.00% (Unspecified)
board.cache_hierarchy.ruby_system.L1Cache_Controller.Ack::total          258                       (Unspecified)
board.cache_hierarchy.ruby_system.L1Cache_Controller.Ack_all |          37     16.52%     16.52% |          10      4.46%     20.98% |          12      5.36%     26.34% |          12      5.36%     31.70% |          12      5.36%     37.05% |          12      5.36%     42.41% |          12      5.36%     47.77% |          12      5.36%     53.12% |          12      5.36%     58.48% |          12      5.36%     63.84% |          12      5.36%     69.20% |           9      4.02%     73.21% |          13      5.80%     79.02% |           9      4.02%     83.04% |          13      5.80%     88.84% |          14      6.25%     95.09% |          11      4.91%    100.00% (Unspecified)
board.cache_hierarchy.ruby_system.L1Cache_Controller.Ack_all::total          224                       (Unspecified)
board.cache_hierarchy.ruby_system.L1Cache_Controller.WB_Ack |         360    100.00%    100.00% |           0      0.00%    100.00% |           0      0.00%    100.00% |           0      0.00%    100.00% |           0      0.00%    100.00% |           0      0.00%    100.00% |           0      0.00%    100.00% |           0      0.00%    100.00% |           0      0.00%    100.00% |           0      0.00%    100.00% |           0      0.00%    100.00% |           0      0.00%    100.00% |           0      0.00%    100.00% |           0      0.00%    100.00% |           0      0.00%    100.00% |           0      0.00%    100.00% |           0      0.00%    100.00% (Unspecified)
board.cache_hierarchy.ruby_system.L1Cache_Controller.WB_Ack::total          360                       (Unspecified)
board.cache_hierarchy.ruby_system.L1Cache_Controller.NP.Load |         133      4.87%      4.87% |         159      5.82%     10.69% |         165      6.04%     16.73% |         164      6.00%     22.73% |         164      6.00%     28.73% |         164      6.00%     34.74% |         164      6.00%     40.74% |         164      6.00%     46.74% |         164      6.00%     52.75% |         164      6.00%     58.75% |         164      6.00%     64.75% |         159      5.82%     70.57% |         162      5.93%     76.50% |         159      5.82%     82.32% |         160      5.86%     88.18% |         163      5.97%     94.14% |         160      5.86%    100.00% (Unspecified)
board.cache_hierarchy.ruby_system.L1Cache_Controller.NP.Load::total         2732                       (Unspecified)
board.cache_hierarchy.ruby_system.L1Cache_Controller.NP.Ifetch |         331     10.56%     10.56% |         189      6.03%     16.59% |         168      5.36%     21.95% |         172      5.49%     27.44% |         167      5.33%     32.77% |         167      5.33%     38.10% |         168      5.36%     43.46% |         168      5.36%     48.82% |         168      5.36%     54.18% |         168      5.36%     59.54% |         168      5.36%     64.90% |         191      6.09%     71.00% |         168      5.36%     76.36% |         191      6.09%     82.45% |         191      6.09%     88.54% |         168      5.36%     93.91% |         191      6.09%    100.00% (Unspecified)
board.cache_hierarchy.ruby_system.L1Cache_Controller.NP.Ifetch::total         3134                       (Unspecified)
board.cache_hierarchy.ruby_system.L1Cache_Controller.NP.Store |         394     39.92%     39.92% |          60      6.08%     46.00% |          27      2.74%     48.73% |          26      2.63%     51.37% |          27      2.74%     54.10% |          27      2.74%     56.84% |          27      2.74%     59.57% |          27      2.74%     62.31% |          27      2.74%     65.05% |          27      2.74%     67.78% |          27      2.74%     70.52% |          60      6.08%     76.60% |          27      2.74%     79.33% |          60      6.08%     85.41% |          59      5.98%     91.39% |          26      2.63%     94.02% |          59      5.98%    100.00% (Unspecified)
board.cache_hierarchy.ruby_system.L1Cache_Controller.NP.Store::total          987                       (Unspecified)
board.cache_hierarchy.ruby_system.L1Cache_Controller.NP.Inv |          12    100.00%    100.00% |           0      0.00%    100.00% |           0      0.00%    100.00% |           0      0.00%    100.00% |           0      0.00%    100.00% |           0      0.00%    100.00% |           0      0.00%    100.00% |           0      0.00%    100.00% |           0      0.00%    100.00% |           0      0.00%    100.00% |           0      0.00%    100.00% |           0      0.00%    100.00% |           0      0.00%    100.00% |           0      0.00%    100.00% |           0      0.00%    100.00% |           0      0.00%    100.00% |           0      0.00%    100.00% (Unspecified)
board.cache_hierarchy.ruby_system.L1Cache_Controller.NP.Inv::total           12                       (Unspecified)
board.cache_hierarchy.ruby_system.L1Cache_Controller.I.Load |          32     53.33%     53.33% |           2      3.33%     56.67% |           2      3.33%     60.00% |           2      3.33%     63.33% |           0      0.00%     63.33% |           0      0.00%     63.33% |           0      0.00%     63.33% |           0      0.00%     63.33% |           0      0.00%     63.33% |           0      0.00%     63.33% |           0      0.00%     63.33% |           5      8.33%     71.67% |           0      0.00%     71.67% |           8     13.33%     85.00% |           5      8.33%     93.33% |           0      0.00%     93.33% |           4      6.67%    100.00% (Unspecified)
board.cache_hierarchy.ruby_system.L1Cache_Controller.I.Load::total           60                       (Unspecified)
board.cache_hierarchy.ruby_system.L1Cache_Controller.I.Store |           4      0.01%      0.01% |        1975      6.04%      6.05% |        2043      6.25%     12.30% |        2048      6.27%     18.57% |        2048      6.27%     24.83% |        2048      6.27%     31.10% |        2048      6.27%     37.37% |        2048      6.27%     43.63% |        2048      6.27%     49.90% |        2048      6.27%     56.16% |        2049      6.27%     62.43% |        2050      6.27%     68.70% |        2047      6.26%     74.96% |        2049      6.27%     81.23% |        2049      6.27%     87.50% |        2047      6.26%     93.76% |        2039      6.24%    100.00% (Unspecified)
board.cache_hierarchy.ruby_system.L1Cache_Controller.I.Store::total        32688                       (Unspecified)
board.cache_hierarchy.ruby_system.L1Cache_Controller.I.L1_Replacement |          58    100.00%    100.00% |           0      0.00%    100.00% |           0      0.00%    100.00% |           0      0.00%    100.00% |           0      0.00%    100.00% |           0      0.00%    100.00% |           0      0.00%    100.00% |           0      0.00%    100.00% |           0      0.00%    100.00% |           0      0.00%    100.00% |           0      0.00%    100.00% |           0      0.00%    100.00% |           0      0.00%    100.00% |           0      0.00%    100.00% |           0      0.00%    100.00% |           0      0.00%    100.00% |           0      0.00%    100.00% (Unspecified)
board.cache_hierarchy.ruby_system.L1Cache_Controller.I.L1_Replacement::total           58                       (Unspecified)
board.cache_hierarchy.ruby_system.L1Cache_Controller.S.Load |         314      5.76%      5.76% |          51      0.94%      6.70% |          71      1.30%      8.00% |          75      1.38%      9.38% |          71      1.30%     10.68% |          79      1.45%     12.13% |          70      1.28%     13.42% |          74      1.36%     14.77% |          70      1.28%     16.06% |          71      1.30%     17.36% |          70      1.28%     18.65% |          95      1.74%     20.39% |          83      1.52%     21.91% |         184      3.38%     25.29% |         984     18.06%     43.35% |        1584     29.07%     72.42% |        1503     27.58%    100.00% (Unspecified)
board.cache_hierarchy.ruby_system.L1Cache_Controller.S.Load::total         5449                       (Unspecified)
board.cache_hierarchy.ruby_system.L1Cache_Controller.S.Ifetch |       21189      4.05%      4.05% |       31334      5.98%     10.03% |       31399      6.00%     16.02% |       31396      5.99%     22.02% |       31396      5.99%     28.01% |       31395      5.99%     34.01% |       31385      5.99%     40.00% |       31385      5.99%     46.00% |       31389      5.99%     51.99% |       31390      5.99%     57.98% |       31391      5.99%     63.98% |       31471      6.01%     69.99% |       31392      5.99%     75.98% |       31477      6.01%     81.99% |       31474      6.01%     88.00% |       31393      5.99%     93.99% |       31450      6.01%    100.00% (Unspecified)
board.cache_hierarchy.ruby_system.L1Cache_Controller.S.Ifetch::total       523706                       (Unspecified)
board.cache_hierarchy.ruby_system.L1Cache_Controller.S.Store |          36     16.36%     16.36% |          10      4.55%     20.91% |          12      5.45%     26.36% |          12      5.45%     31.82% |          12      5.45%     37.27% |          12      5.45%     42.73% |          12      5.45%     48.18% |          12      5.45%     53.64% |          12      5.45%     59.09% |          12      5.45%     64.55% |          12      5.45%     70.00% |           9      4.09%     74.09% |          13      5.91%     80.00% |           9      4.09%     84.09% |          11      5.00%     89.09% |          14      6.36%     95.45% |          10      4.55%    100.00% (Unspecified)
board.cache_hierarchy.ruby_system.L1Cache_Controller.S.Store::total          220                       (Unspecified)
board.cache_hierarchy.ruby_system.L1Cache_Controller.S.Inv |          69     27.60%     27.60% |          12      4.80%     32.40% |          13      5.20%     37.60% |          13      5.20%     42.80% |          11      4.40%     47.20% |          10      4.00%     51.20% |          11      4.40%     55.60% |          10      4.00%     59.60% |          11      4.40%     64.00% |          11      4.40%     68.40% |          13      5.20%     73.60% |          14      5.60%     79.20% |          12      4.80%     84.00% |          16      6.40%     90.40% |          12      4.80%     95.20% |           5      2.00%     97.20% |           7      2.80%    100.00% (Unspecified)
board.cache_hierarchy.ruby_system.L1Cache_Controller.S.Inv::total          250                       (Unspecified)
board.cache_hierarchy.ruby_system.L1Cache_Controller.S.L1_Replacement |         440     98.65%     98.65% |           2      0.45%     99.10% |           2      0.45%     99.55% |           2      0.45%    100.00% |           0      0.00%    100.00% |           0      0.00%    100.00% |           0      0.00%    100.00% |           0      0.00%    100.00% |           0      0.00%    100.00% |           0      0.00%    100.00% |           0      0.00%    100.00% |           0      0.00%    100.00% |           0      0.00%    100.00% |           0      0.00%    100.00% |           0      0.00%    100.00% |           0      0.00%    100.00% |           0      0.00%    100.00% (Unspecified)
board.cache_hierarchy.ruby_system.L1Cache_Controller.S.L1_Replacement::total          446                       (Unspecified)
board.cache_hierarchy.ruby_system.L1Cache_Controller.E.Load |        1720      6.03%      6.03% |        1934      6.78%     12.82% |        1917      6.72%     19.54% |        1916      6.72%     26.26% |        1916      6.72%     32.98% |        1916      6.72%     39.71% |        1916      6.72%     46.43% |        1916      6.72%     53.15% |        1916      6.72%     59.87% |        1916      6.72%     66.59% |        1916      6.72%     73.31% |        1916      6.72%     80.03% |        1916      6.72%     86.75% |        1826      6.41%     93.16% |        1020      3.58%     96.74% |         420      1.47%     98.21% |         510      1.79%    100.00% (Unspecified)
board.cache_hierarchy.ruby_system.L1Cache_Controller.E.Load::total        28507                       (Unspecified)
board.cache_hierarchy.ruby_system.L1Cache_Controller.E.Store |          20     83.33%     83.33% |           0      0.00%     83.33% |           0      0.00%     83.33% |           1      4.17%     87.50% |           0      0.00%     87.50% |           0      0.00%     87.50% |           0      0.00%     87.50% |           0      0.00%     87.50% |           0      0.00%     87.50% |           0      0.00%     87.50% |           0      0.00%     87.50% |           0      0.00%     87.50% |           0      0.00%     87.50% |           0      0.00%     87.50% |           1      4.17%     91.67% |           1      4.17%     95.83% |           1      4.17%    100.00% (Unspecified)
board.cache_hierarchy.ruby_system.L1Cache_Controller.E.Store::total           24                       (Unspecified)
board.cache_hierarchy.ruby_system.L1Cache_Controller.E.L1_Replacement |          11    100.00%    100.00% |           0      0.00%    100.00% |           0      0.00%    100.00% |           0      0.00%    100.00% |           0      0.00%    100.00% |           0      0.00%    100.00% |           0      0.00%    100.00% |           0      0.00%    100.00% |           0      0.00%    100.00% |           0      0.00%    100.00% |           0      0.00%    100.00% |           0      0.00%    100.00% |           0      0.00%    100.00% |           0      0.00%    100.00% |           0      0.00%    100.00% |           0      0.00%    100.00% |           0      0.00%    100.00% (Unspecified)
board.cache_hierarchy.ruby_system.L1Cache_Controller.E.L1_Replacement::total           11                       (Unspecified)
board.cache_hierarchy.ruby_system.L1Cache_Controller.E.Fwd_GETS |           7     15.56%     15.56% |           7     15.56%     31.11% |           3      6.67%     37.78% |           2      4.44%     42.22% |           3      6.67%     48.89% |           3      6.67%     55.56% |           2      4.44%     60.00% |           2      4.44%     64.44% |           2      4.44%     68.89% |           2      4.44%     73.33% |           2      4.44%     77.78% |           2      4.44%     82.22% |           2      4.44%     86.67% |           3      6.67%     93.33% |           1      2.22%     95.56% |           1      2.22%     97.78% |           1      2.22%    100.00% (Unspecified)
board.cache_hierarchy.ruby_system.L1Cache_Controller.E.Fwd_GETS::total           45                       (Unspecified)
board.cache_hierarchy.ruby_system.L1Cache_Controller.M.Load |       11177      4.51%      4.51% |       14859      5.99%     10.50% |       14800      5.97%     16.47% |       14798      5.97%     22.44% |       14799      5.97%     28.40% |       14790      5.96%     34.37% |       14797      5.97%     40.33% |       14792      5.97%     46.30% |       14792      5.97%     52.27% |       14794      5.97%     58.23% |       14798      5.97%     64.20% |       14804      5.97%     70.17% |       14787      5.96%     76.13% |       14810      5.97%     82.10% |       14810      5.97%     88.08% |       14783      5.96%     94.04% |       14784      5.96%    100.00% (Unspecified)
board.cache_hierarchy.ruby_system.L1Cache_Controller.M.Load::total       247974                       (Unspecified)
board.cache_hierarchy.ruby_system.L1Cache_Controller.M.Store |       21882      8.44%      8.44% |       15090      5.82%     14.26% |       14759      5.69%     19.95% |       14754      5.69%     25.64% |       14754      5.69%     31.32% |       14754      5.69%     37.01% |       14754      5.69%     42.70% |       14754      5.69%     48.39% |       14754      5.69%     54.08% |       14754      5.69%     59.77% |       14753      5.69%     65.46% |       15017      5.79%     71.25% |       14754      5.69%     76.94% |       15019      5.79%     82.73% |       15016      5.79%     88.52% |       14753      5.69%     94.21% |       15028      5.79%    100.00% (Unspecified)
board.cache_hierarchy.ruby_system.L1Cache_Controller.M.Store::total       259349                       (Unspecified)
board.cache_hierarchy.ruby_system.L1Cache_Controller.M.L1_Replacement |         349    100.00%    100.00% |           0      0.00%    100.00% |           0      0.00%    100.00% |           0      0.00%    100.00% |           0      0.00%    100.00% |           0      0.00%    100.00% |           0      0.00%    100.00% |           0      0.00%    100.00% |           0      0.00%    100.00% |           0      0.00%    100.00% |           0      0.00%    100.00% |           0      0.00%    100.00% |           0      0.00%    100.00% |           0      0.00%    100.00% |           0      0.00%    100.00% |           0      0.00%    100.00% |           0      0.00%    100.00% (Unspecified)
board.cache_hierarchy.ruby_system.L1Cache_Controller.M.L1_Replacement::total          349                       (Unspecified)
board.cache_hierarchy.ruby_system.L1Cache_Controller.M.Fwd_GETX |          46      0.14%      0.14% |        1989      6.05%      6.19% |        2056      6.25%     12.44% |        2061      6.27%     18.71% |        2061      6.27%     24.98% |        2061      6.27%     31.25% |        2061      6.27%     37.51% |        2061      6.27%     43.78% |        2061      6.27%     50.05% |        2061      6.27%     56.32% |        2061      6.27%     62.59% |        2050      6.23%     68.82% |        2062      6.27%     75.09% |        2050      6.23%     81.33% |        2050      6.23%     87.56% |        2051      6.24%     93.80% |        2039      6.20%    100.00% (Unspecified)
board.cache_hierarchy.ruby_system.L1Cache_Controller.M.Fwd_GETX::total        32881                       (Unspecified)
board.cache_hierarchy.ruby_system.L1Cache_Controller.M.Fwd_GETS |         400     71.17%     71.17% |          12      2.14%     73.31% |          11      1.96%     75.27% |          11      1.96%     77.22% |          11      1.96%     79.18% |          11      1.96%     81.14% |          11      1.96%     83.10% |          11      1.96%     85.05% |          11      1.96%     87.01% |          11      1.96%     88.97% |          12      2.14%     91.10% |           9      1.60%     92.70% |          10      1.78%     94.48% |           8      1.42%     95.91% |          10      1.78%     97.69% |           6      1.07%     98.75% |           7      1.25%    100.00% (Unspecified)
board.cache_hierarchy.ruby_system.L1Cache_Controller.M.Fwd_GETS::total          562                       (Unspecified)
board.cache_hierarchy.ruby_system.L1Cache_Controller.IS.Data_Exclusive |          75      3.85%      3.85% |         138      7.08%     10.93% |         134      6.88%     17.81% |         133      6.83%     24.64% |         133      6.83%     31.47% |         133      6.83%     38.30% |         133      6.83%     45.12% |         133      6.83%     51.95% |         133      6.83%     58.78% |         133      6.83%     65.61% |         133      6.83%     72.43% |         132      6.78%     79.21% |         132      6.78%     85.99% |         127      6.52%     92.51% |          73      3.75%     96.25% |          34      1.75%     98.00% |          39      2.00%    100.00% (Unspecified)
board.cache_hierarchy.ruby_system.L1Cache_Controller.IS.Data_Exclusive::total         1948                       (Unspecified)
board.cache_hierarchy.ruby_system.L1Cache_Controller.IS.DataS_fromL1 |          58      9.56%      9.56% |          21      3.46%     13.01% |          27      4.45%     17.46% |          21      3.46%     20.92% |          18      2.97%     23.89% |          19      3.13%     27.02% |          16      2.64%     29.65% |          17      2.80%     32.45% |          16      2.64%     35.09% |          17      2.80%     37.89% |          16      2.64%     40.53% |          19      3.13%     43.66% |          17      2.80%     46.46% |          23      3.79%     50.25% |          76     12.52%     62.77% |         116     19.11%     81.88% |         110     18.12%    100.00% (Unspecified)
board.cache_hierarchy.ruby_system.L1Cache_Controller.IS.DataS_fromL1::total          607                       (Unspecified)
board.cache_hierarchy.ruby_system.L1Cache_Controller.IS.Data_all_Acks |         363     10.77%     10.77% |         191      5.67%     16.43% |         174      5.16%     21.60% |         184      5.46%     27.05% |         180      5.34%     32.39% |         179      5.31%     37.70% |         183      5.43%     43.13% |         182      5.40%     48.53% |         183      5.43%     53.96% |         182      5.40%     59.36% |         183      5.43%     64.79% |         204      6.05%     70.84% |         181      5.37%     76.21% |         208      6.17%     82.38% |         207      6.14%     88.52% |         181      5.37%     93.89% |         206      6.11%    100.00% (Unspecified)
board.cache_hierarchy.ruby_system.L1Cache_Controller.IS.Data_all_Acks::total         3371                       (Unspecified)
board.cache_hierarchy.ruby_system.L1Cache_Controller.IM.Data |           1     25.00%     25.00% |           0      0.00%     25.00% |           0      0.00%     25.00% |           0      0.00%     25.00% |           0      0.00%     25.00% |           0      0.00%     25.00% |           0      0.00%     25.00% |           0      0.00%     25.00% |           0      0.00%     25.00% |           0      0.00%     25.00% |           0      0.00%     25.00% |           0      0.00%     25.00% |           0      0.00%     25.00% |           0      0.00%     25.00% |           2     50.00%     75.00% |           0      0.00%     75.00% |           1     25.00%    100.00% (Unspecified)
board.cache_hierarchy.ruby_system.L1Cache_Controller.IM.Data::total            4                       (Unspecified)
board.cache_hierarchy.ruby_system.L1Cache_Controller.IM.Data_all_Acks |         397      1.18%      1.18% |        2035      6.04%      7.22% |        2070      6.15%     13.37% |        2074      6.16%     19.53% |        2075      6.16%     25.69% |        2075      6.16%     31.86% |        2075      6.16%     38.02% |        2075      6.16%     44.18% |        2075      6.16%     50.34% |        2075      6.16%     56.51% |        2076      6.17%     62.67% |        2110      6.27%     68.94% |        2074      6.16%     75.10% |        2109      6.26%     81.36% |        2106      6.25%     87.62% |        2073      6.16%     93.77% |        2097      6.23%    100.00% (Unspecified)
board.cache_hierarchy.ruby_system.L1Cache_Controller.IM.Data_all_Acks::total        33671                       (Unspecified)
board.cache_hierarchy.ruby_system.L1Cache_Controller.SM.Ack |          42     16.28%     16.28% |          10      3.88%     20.16% |          13      5.04%     25.19% |          12      4.65%     29.84% |          12      4.65%     34.50% |          12      4.65%     39.15% |          13      5.04%     44.19% |          13      5.04%     49.22% |          13      5.04%     54.26% |          13      5.04%     59.30% |          13      5.04%     64.34% |          20      7.75%     72.09% |          16      6.20%     78.29% |          11      4.26%     82.56% |          13      5.04%     87.60% |          16      6.20%     93.80% |          16      6.20%    100.00% (Unspecified)
board.cache_hierarchy.ruby_system.L1Cache_Controller.SM.Ack::total          258                       (Unspecified)
board.cache_hierarchy.ruby_system.L1Cache_Controller.SM.Ack_all |          37     16.52%     16.52% |          10      4.46%     20.98% |          12      5.36%     26.34% |          12      5.36%     31.70% |          12      5.36%     37.05% |          12      5.36%     42.41% |          12      5.36%     47.77% |          12      5.36%     53.12% |          12      5.36%     58.48% |          12      5.36%     63.84% |          12      5.36%     69.20% |           9      4.02%     73.21% |          13      5.80%     79.02% |           9      4.02%     83.04% |          13      5.80%     88.84% |          14      6.25%     95.09% |          11      4.91%    100.00% (Unspecified)
board.cache_hierarchy.ruby_system.L1Cache_Controller.SM.Ack_all::total          224                       (Unspecified)
board.cache_hierarchy.ruby_system.L1Cache_Controller.M_I.WB_Ack |         360    100.00%    100.00% |           0      0.00%    100.00% |           0      0.00%    100.00% |           0      0.00%    100.00% |           0      0.00%    100.00% |           0      0.00%    100.00% |           0      0.00%    100.00% |           0      0.00%    100.00% |           0      0.00%    100.00% |           0      0.00%    100.00% |           0      0.00%    100.00% |           0      0.00%    100.00% |           0      0.00%    100.00% |           0      0.00%    100.00% |           0      0.00%    100.00% |           0      0.00%    100.00% |           0      0.00%    100.00% (Unspecified)
board.cache_hierarchy.ruby_system.L1Cache_Controller.M_I.WB_Ack::total          360                       (Unspecified)
board.cache_hierarchy.ruby_system.L2Cache_Controller.L1_GET_INSTR |         198      6.32%      6.32% |         128      4.08%     10.40% |         136      4.34%     14.74% |         168      5.36%     20.10% |         192      6.13%     26.23% |         226      7.21%     33.44% |         231      7.37%     40.81% |         172      5.49%     46.30% |         198      6.32%     52.62% |         221      7.05%     59.67% |         202      6.45%     66.11% |         199      6.35%     72.46% |         206      6.57%     79.04% |         199      6.35%     85.39% |         228      7.28%     92.66% |         230      7.34%    100.00% (Unspecified)
board.cache_hierarchy.ruby_system.L2Cache_Controller.L1_GET_INSTR::total         3134                       (Unspecified)
board.cache_hierarchy.ruby_system.L2Cache_Controller.L1_GETS |         148      5.30%      5.30% |         207      7.41%     12.71% |         192      6.87%     19.58% |         202      7.23%     26.82% |         184      6.59%     33.40% |         184      6.59%     39.99% |         177      6.34%     46.33% |         139      4.98%     51.31% |         149      5.33%     56.64% |         189      6.77%     63.41% |         193      6.91%     70.32% |         132      4.73%     75.04% |         170      6.09%     81.13% |         159      5.69%     86.82% |         186      6.66%     93.48% |         182      6.52%    100.00% (Unspecified)
board.cache_hierarchy.ruby_system.L2Cache_Controller.L1_GETS::total         2793                       (Unspecified)
board.cache_hierarchy.ruby_system.L2Cache_Controller.L1_GETX |          49      0.01%      0.01% |          59      0.01%      0.03% |          54      0.01%      0.04% |          56      0.01%      0.05% |          92      0.02%      0.07% |          99      0.02%      0.10% |          77      0.02%      0.12% |          82      0.02%      0.14% |          82      0.02%      0.15% |          49      0.01%      0.17% |          54      0.01%      0.18% |          34      0.01%      0.19% |          66      0.02%      0.20% |          64      0.02%      0.22% |          45      0.01%      0.23% |      419522     99.77%    100.00% (Unspecified)
board.cache_hierarchy.ruby_system.L2Cache_Controller.L1_GETX::total       420484                       (Unspecified)
board.cache_hierarchy.ruby_system.L2Cache_Controller.L1_UPGRADE |           2      0.90%      0.90% |          57     25.68%     26.58% |          26     11.71%     38.29% |          12      5.41%     43.69% |          13      5.86%     49.55% |          32     14.41%     63.96% |          10      4.50%     68.47% |           5      2.25%     70.72% |           0      0.00%     70.72% |           2      0.90%     71.62% |          24     10.81%     82.43% |           0      0.00%     82.43% |          18      8.11%     90.54% |           2      0.90%     91.44% |          17      7.66%     99.10% |           2      0.90%    100.00% (Unspecified)
board.cache_hierarchy.ruby_system.L2Cache_Controller.L1_UPGRADE::total          222                       (Unspecified)
board.cache_hierarchy.ruby_system.L2Cache_Controller.L1_PUTX |           7      1.94%      1.94% |          17      4.72%      6.67% |          15      4.17%     10.83% |          33      9.17%     20.00% |          46     12.78%     32.78% |          35      9.72%     42.50% |          30      8.33%     50.83% |          15      4.17%     55.00% |          18      5.00%     60.00% |          14      3.89%     63.89% |          29      8.06%     71.94% |          11      3.06%     75.00% |          29      8.06%     83.06% |          38     10.56%     93.61% |          13      3.61%     97.22% |          10      2.78%    100.00% (Unspecified)
board.cache_hierarchy.ruby_system.L2Cache_Controller.L1_PUTX::total          360                       (Unspecified)
board.cache_hierarchy.ruby_system.L2Cache_Controller.Mem_Data |          63      5.29%      5.29% |          73      6.13%     11.43% |          79      6.64%     18.07% |          82      6.89%     24.96% |          97      8.15%     33.11% |          98      8.24%     41.34% |          83      6.97%     48.32% |          77      6.47%     54.79% |          74      6.22%     61.01% |          76      6.39%     67.39% |          59      4.96%     72.35% |          44      3.70%     76.05% |          65      5.46%     81.51% |          76      6.39%     87.90% |          71      5.97%     93.87% |          73      6.13%    100.00% (Unspecified)
board.cache_hierarchy.ruby_system.L2Cache_Controller.Mem_Data::total         1190                       (Unspecified)
board.cache_hierarchy.ruby_system.L2Cache_Controller.WB_Data |          25      4.45%      4.45% |          89     15.84%     20.28% |          60     10.68%     30.96% |          28      4.98%     35.94% |          32      5.69%     41.64% |          57     10.14%     51.78% |          25      4.45%     56.23% |          21      3.74%     59.96% |          19      3.38%     63.35% |          38      6.76%     70.11% |          41      7.30%     77.40% |          19      3.38%     80.78% |          34      6.05%     86.83% |          19      3.38%     90.21% |          33      5.87%     96.09% |          22      3.91%    100.00% (Unspecified)
board.cache_hierarchy.ruby_system.L2Cache_Controller.WB_Data::total          562                       (Unspecified)
board.cache_hierarchy.ruby_system.L2Cache_Controller.WB_Data_clean |          12     26.67%     26.67% |           0      0.00%     26.67% |           1      2.22%     28.89% |          18     40.00%     68.89% |           1      2.22%     71.11% |           1      2.22%     73.33% |           1      2.22%     75.56% |           0      0.00%     75.56% |           2      4.44%     80.00% |           1      2.22%     82.22% |           2      4.44%     86.67% |           0      0.00%     86.67% |           1      2.22%     88.89% |           1      2.22%     91.11% |           2      4.44%     95.56% |           2      4.44%    100.00% (Unspecified)
board.cache_hierarchy.ruby_system.L2Cache_Controller.WB_Data_clean::total           45                       (Unspecified)
board.cache_hierarchy.ruby_system.L2Cache_Controller.Unblock |          37      6.10%      6.10% |          89     14.66%     20.76% |          61     10.05%     30.81% |          46      7.58%     38.39% |          33      5.44%     43.82% |          58      9.56%     53.38% |          26      4.28%     57.66% |          21      3.46%     61.12% |          21      3.46%     64.58% |          39      6.43%     71.00% |          43      7.08%     78.09% |          19      3.13%     81.22% |          35      5.77%     86.99% |          20      3.29%     90.28% |          35      5.77%     96.05% |          24      3.95%    100.00% (Unspecified)
board.cache_hierarchy.ruby_system.L2Cache_Controller.Unblock::total          607                       (Unspecified)
board.cache_hierarchy.ruby_system.L2Cache_Controller.Exclusive_Unblock |         159      0.44%      0.44% |         231      0.64%      1.09% |         196      0.55%      1.63% |         200      0.56%      2.19% |         240      0.67%      2.86% |         257      0.72%      3.58% |         209      0.58%      4.16% |         204      0.57%      4.73% |         203      0.57%      5.30% |         181      0.50%      5.80% |         196      0.55%      6.35% |         147      0.41%      6.76% |         203      0.57%      7.33% |         190      0.53%      7.86% |         183      0.51%      8.37% |       32844     91.63%    100.00% (Unspecified)
board.cache_hierarchy.ruby_system.L2Cache_Controller.Exclusive_Unblock::total        35843                       (Unspecified)
board.cache_hierarchy.ruby_system.L2Cache_Controller.NP.L1_GET_INSTR |          25      6.54%      6.54% |          23      6.02%     12.57% |          26      6.81%     19.37% |          28      7.33%     26.70% |          27      7.07%     33.77% |          27      7.07%     40.84% |          26      6.81%     47.64% |          23      6.02%     53.66% |          19      4.97%     58.64% |          21      5.50%     64.14% |          20      5.24%     69.37% |          22      5.76%     75.13% |          26      6.81%     81.94% |          22      5.76%     87.70% |          23      6.02%     93.72% |          24      6.28%    100.00% (Unspecified)
board.cache_hierarchy.ruby_system.L2Cache_Controller.NP.L1_GET_INSTR::total          382                       (Unspecified)
board.cache_hierarchy.ruby_system.L2Cache_Controller.NP.L1_GETS |           0      0.00%      0.00% |           2      3.08%      3.08% |           0      0.00%      3.08% |           0      0.00%      3.08% |          16     24.62%     27.69% |           1      1.54%     29.23% |           2      3.08%     32.31% |           1      1.54%     33.85% |           1      1.54%     35.38% |          17     26.15%     61.54% |           2      3.08%     64.62% |           0      0.00%     64.62% |           1      1.54%     66.15% |           1      1.54%     67.69% |           4      6.15%     73.85% |          17     26.15%    100.00% (Unspecified)
board.cache_hierarchy.ruby_system.L2Cache_Controller.NP.L1_GETS::total           65                       (Unspecified)
board.cache_hierarchy.ruby_system.L2Cache_Controller.NP.L1_GETX |          38      5.11%      5.11% |          48      6.46%     11.57% |          53      7.13%     18.71% |          54      7.27%     25.98% |          54      7.27%     33.24% |          70      9.42%     42.66% |          55      7.40%     50.07% |          53      7.13%     57.20% |          54      7.27%     64.47% |          38      5.11%     69.58% |          37      4.98%     74.56% |          22      2.96%     77.52% |          38      5.11%     82.64% |          53      7.13%     89.77% |          44      5.92%     95.69% |          32      4.31%    100.00% (Unspecified)
board.cache_hierarchy.ruby_system.L2Cache_Controller.NP.L1_GETX::total          743                       (Unspecified)
board.cache_hierarchy.ruby_system.L2Cache_Controller.SS.L1_GET_INSTR |         173      6.29%      6.29% |         105      3.82%     10.11% |         110      4.00%     14.11% |         140      5.09%     19.20% |         165      6.00%     25.20% |         199      7.24%     32.44% |         204      7.42%     39.85% |         149      5.42%     45.27% |         179      6.51%     51.78% |         199      7.24%     59.02% |         182      6.62%     65.64% |         177      6.44%     72.07% |         180      6.55%     78.62% |         177      6.44%     85.05% |         205      7.45%     92.51% |         206      7.49%    100.00% (Unspecified)
board.cache_hierarchy.ruby_system.L2Cache_Controller.SS.L1_GET_INSTR::total         2750                       (Unspecified)
board.cache_hierarchy.ruby_system.L2Cache_Controller.SS.L1_GETS |           3      1.27%      1.27% |           3      1.27%      2.53% |          15      6.33%      8.86% |          24     10.13%     18.99% |          16      6.75%     25.74% |           0      0.00%     25.74% |          29     12.24%     37.97% |           1      0.42%     38.40% |           7      2.95%     41.35% |          20      8.44%     49.79% |          30     12.66%     62.45% |           0      0.00%     62.45% |          15      6.33%     68.78% |          15      6.33%     75.11% |          30     12.66%     87.76% |          29     12.24%    100.00% (Unspecified)
board.cache_hierarchy.ruby_system.L2Cache_Controller.SS.L1_GETS::total          237                       (Unspecified)
board.cache_hierarchy.ruby_system.L2Cache_Controller.SS.L1_GETX |           0      0.00%      0.00% |           0      0.00%      0.00% |           0      0.00%      0.00% |           0      0.00%      0.00% |           2     50.00%     50.00% |           0      0.00%     50.00% |           0      0.00%     50.00% |           0      0.00%     50.00% |           0      0.00%     50.00% |           0      0.00%     50.00% |           2     50.00%    100.00% |           0      0.00%    100.00% |           0      0.00%    100.00% |           0      0.00%    100.00% |           0      0.00%    100.00% |           0      0.00%    100.00% (Unspecified)
board.cache_hierarchy.ruby_system.L2Cache_Controller.SS.L1_GETX::total            4                       (Unspecified)
board.cache_hierarchy.ruby_system.L2Cache_Controller.SS.L1_UPGRADE |           2      0.91%      0.91% |          57     25.91%     26.82% |          26     11.82%     38.64% |          12      5.45%     44.09% |          13      5.91%     50.00% |          32     14.55%     64.55% |          10      4.55%     69.09% |           5      2.27%     71.36% |           0      0.00%     71.36% |           2      0.91%     72.27% |          23     10.45%     82.73% |           0      0.00%     82.73% |          17      7.73%     90.45% |           2      0.91%     91.36% |          17      7.73%     99.09% |           2      0.91%    100.00% (Unspecified)
board.cache_hierarchy.ruby_system.L2Cache_Controller.SS.L1_UPGRADE::total          220                       (Unspecified)
board.cache_hierarchy.ruby_system.L2Cache_Controller.M.L1_GETS |         108      5.74%      5.74% |         113      6.00%     11.74% |         116      6.16%     17.90% |         132      7.01%     24.91% |         119      6.32%     31.23% |         125      6.64%     37.87% |         120      6.37%     44.24% |         116      6.16%     50.40% |         120      6.37%     56.77% |         113      6.00%     62.77% |         117      6.21%     68.99% |         113      6.00%     74.99% |         119      6.32%     81.31% |         123      6.53%     87.84% |         117      6.21%     94.05% |         112      5.95%    100.00% (Unspecified)
board.cache_hierarchy.ruby_system.L2Cache_Controller.M.L1_GETS::total         1883                       (Unspecified)
board.cache_hierarchy.ruby_system.L2Cache_Controller.M.L1_GETX |           0      0.00%      0.00% |           1      2.13%      2.13% |           1      2.13%      4.26% |           2      4.26%      8.51% |          20     42.55%     51.06% |           2      4.26%     55.32% |           0      0.00%     55.32% |           2      4.26%     59.57% |           1      2.13%     61.70% |           0      0.00%     61.70% |           1      2.13%     63.83% |           1      2.13%     65.96% |          14     29.79%     95.74% |           0      0.00%     95.74% |           1      2.13%     97.87% |           1      2.13%    100.00% (Unspecified)
board.cache_hierarchy.ruby_system.L2Cache_Controller.M.L1_GETX::total           47                       (Unspecified)
board.cache_hierarchy.ruby_system.L2Cache_Controller.MT.L1_GETS |          37      6.10%      6.10% |          89     14.66%     20.76% |          61     10.05%     30.81% |          46      7.58%     38.39% |          33      5.44%     43.82% |          58      9.56%     53.38% |          26      4.28%     57.66% |          21      3.46%     61.12% |          21      3.46%     64.58% |          39      6.43%     71.00% |          43      7.08%     78.09% |          19      3.13%     81.22% |          35      5.77%     86.99% |          20      3.29%     90.28% |          35      5.77%     96.05% |          24      3.95%    100.00% (Unspecified)
board.cache_hierarchy.ruby_system.L2Cache_Controller.MT.L1_GETS::total          607                       (Unspecified)
board.cache_hierarchy.ruby_system.L2Cache_Controller.MT.L1_GETX |          11      0.03%      0.03% |          10      0.03%      0.06% |           0      0.00%      0.06% |           0      0.00%      0.06% |          16      0.05%      0.11% |          27      0.08%      0.19% |          22      0.07%      0.26% |          27      0.08%      0.34% |          27      0.08%      0.43% |          11      0.03%      0.46% |          14      0.04%      0.50% |          11      0.03%      0.54% |          14      0.04%      0.58% |          11      0.03%      0.61% |           0      0.00%      0.61% |       32680     99.39%    100.00% (Unspecified)
board.cache_hierarchy.ruby_system.L2Cache_Controller.MT.L1_GETX::total        32881                       (Unspecified)
board.cache_hierarchy.ruby_system.L2Cache_Controller.MT.L1_PUTX |           7      1.94%      1.94% |          17      4.72%      6.67% |          15      4.17%     10.83% |          33      9.17%     20.00% |          46     12.78%     32.78% |          35      9.72%     42.50% |          30      8.33%     50.83% |          15      4.17%     55.00% |          18      5.00%     60.00% |          14      3.89%     63.89% |          29      8.06%     71.94% |          11      3.06%     75.00% |          29      8.06%     83.06% |          38     10.56%     93.61% |          13      3.61%     97.22% |          10      2.78%    100.00% (Unspecified)
board.cache_hierarchy.ruby_system.L2Cache_Controller.MT.L1_PUTX::total          360                       (Unspecified)
board.cache_hierarchy.ruby_system.L2Cache_Controller.ISS.Mem_Data |           0      0.00%      0.00% |           2      3.08%      3.08% |           0      0.00%      3.08% |           0      0.00%      3.08% |          16     24.62%     27.69% |           1      1.54%     29.23% |           2      3.08%     32.31% |           1      1.54%     33.85% |           1      1.54%     35.38% |          17     26.15%     61.54% |           2      3.08%     64.62% |           0      0.00%     64.62% |           1      1.54%     66.15% |           1      1.54%     67.69% |           4      6.15%     73.85% |          17     26.15%    100.00% (Unspecified)
board.cache_hierarchy.ruby_system.L2Cache_Controller.ISS.Mem_Data::total           65                       (Unspecified)
board.cache_hierarchy.ruby_system.L2Cache_Controller.IS.L1_GET_INSTR |           0      0.00%      0.00% |           0      0.00%      0.00% |           0      0.00%      0.00% |           0      0.00%      0.00% |           0      0.00%      0.00% |           0      0.00%      0.00% |           1     50.00%     50.00% |           0      0.00%     50.00% |           0      0.00%     50.00% |           1     50.00%    100.00% |           0      0.00%    100.00% |           0      0.00%    100.00% |           0      0.00%    100.00% |           0      0.00%    100.00% |           0      0.00%    100.00% |           0      0.00%    100.00% (Unspecified)
board.cache_hierarchy.ruby_system.L2Cache_Controller.IS.L1_GET_INSTR::total            2                       (Unspecified)
board.cache_hierarchy.ruby_system.L2Cache_Controller.IS.Mem_Data |          25      6.54%      6.54% |          23      6.02%     12.57% |          26      6.81%     19.37% |          28      7.33%     26.70% |          27      7.07%     33.77% |          27      7.07%     40.84% |          26      6.81%     47.64% |          23      6.02%     53.66% |          19      4.97%     58.64% |          21      5.50%     64.14% |          20      5.24%     69.37% |          22      5.76%     75.13% |          26      6.81%     81.94% |          22      5.76%     87.70% |          23      6.02%     93.72% |          24      6.28%    100.00% (Unspecified)
board.cache_hierarchy.ruby_system.L2Cache_Controller.IS.Mem_Data::total          382                       (Unspecified)
board.cache_hierarchy.ruby_system.L2Cache_Controller.IM.Mem_Data |          38      5.11%      5.11% |          48      6.46%     11.57% |          53      7.13%     18.71% |          54      7.27%     25.98% |          54      7.27%     33.24% |          70      9.42%     42.66% |          55      7.40%     50.07% |          53      7.13%     57.20% |          54      7.27%     64.47% |          38      5.11%     69.58% |          37      4.98%     74.56% |          22      2.96%     77.52% |          38      5.11%     82.64% |          53      7.13%     89.77% |          44      5.92%     95.69% |          32      4.31%    100.00% (Unspecified)
board.cache_hierarchy.ruby_system.L2Cache_Controller.IM.Mem_Data::total          743                       (Unspecified)
board.cache_hierarchy.ruby_system.L2Cache_Controller.SS_MB.L1_GETS |           0      0.00%      0.00% |           0      0.00%      0.00% |           0      0.00%      0.00% |           0      0.00%      0.00% |           0      0.00%      0.00% |           0      0.00%      0.00% |           0      0.00%      0.00% |           0      0.00%      0.00% |           0      0.00%      0.00% |           0      0.00%      0.00% |           1    100.00%    100.00% |           0      0.00%    100.00% |           0      0.00%    100.00% |           0      0.00%    100.00% |           0      0.00%    100.00% |           0      0.00%    100.00% (Unspecified)
board.cache_hierarchy.ruby_system.L2Cache_Controller.SS_MB.L1_GETS::total            1                       (Unspecified)
board.cache_hierarchy.ruby_system.L2Cache_Controller.SS_MB.Exclusive_Unblock |           2      0.89%      0.89% |          57     25.45%     26.34% |          26     11.61%     37.95% |          12      5.36%     43.30% |          15      6.70%     50.00% |          32     14.29%     64.29% |          10      4.46%     68.75% |           5      2.23%     70.98% |           0      0.00%     70.98% |           2      0.89%     71.87% |          25     11.16%     83.04% |           0      0.00%     83.04% |          17      7.59%     90.62% |           2      0.89%     91.52% |          17      7.59%     99.11% |           2      0.89%    100.00% (Unspecified)
board.cache_hierarchy.ruby_system.L2Cache_Controller.SS_MB.Exclusive_Unblock::total          224                       (Unspecified)
board.cache_hierarchy.ruby_system.L2Cache_Controller.MT_MB.L1_GETX |           0      0.00%      0.00% |           0      0.00%      0.00% |           0      0.00%      0.00% |           0      0.00%      0.00% |           0      0.00%      0.00% |           0      0.00%      0.00% |           0      0.00%      0.00% |           0      0.00%      0.00% |           0      0.00%      0.00% |           0      0.00%      0.00% |           0      0.00%      0.00% |           0      0.00%      0.00% |           0      0.00%      0.00% |           0      0.00%      0.00% |           0      0.00%      0.00% |      386809    100.00%    100.00% (Unspecified)
board.cache_hierarchy.ruby_system.L2Cache_Controller.MT_MB.L1_GETX::total       386809                       (Unspecified)
board.cache_hierarchy.ruby_system.L2Cache_Controller.MT_MB.Exclusive_Unblock |         157      0.44%      0.44% |         174      0.49%      0.93% |         170      0.48%      1.41% |         188      0.53%      1.93% |         225      0.63%      2.57% |         225      0.63%      3.20% |         199      0.56%      3.76% |         199      0.56%      4.32% |         203      0.57%      4.89% |         179      0.50%      5.39% |         171      0.48%      5.87% |         147      0.41%      6.28% |         186      0.52%      6.80% |         188      0.53%      7.33% |         166      0.47%      7.80% |       32842     92.20%    100.00% (Unspecified)
board.cache_hierarchy.ruby_system.L2Cache_Controller.MT_MB.Exclusive_Unblock::total        35619                       (Unspecified)
board.cache_hierarchy.ruby_system.L2Cache_Controller.MT_IIB.WB_Data |          25      4.77%      4.77% |          64     12.21%     16.98% |          60     11.45%     28.44% |          27      5.15%     33.59% |          31      5.92%     39.50% |          57     10.88%     50.38% |          24      4.58%     54.96% |          21      4.01%     58.97% |          19      3.63%     62.60% |          37      7.06%     69.66% |          32      6.11%     75.76% |          19      3.63%     79.39% |          34      6.49%     85.88% |          19      3.63%     89.50% |          33      6.30%     95.80% |          22      4.20%    100.00% (Unspecified)
board.cache_hierarchy.ruby_system.L2Cache_Controller.MT_IIB.WB_Data::total          524                       (Unspecified)
board.cache_hierarchy.ruby_system.L2Cache_Controller.MT_IIB.WB_Data_clean |          12     41.38%     41.38% |           0      0.00%     41.38% |           1      3.45%     44.83% |           3     10.34%     55.17% |           1      3.45%     58.62% |           1      3.45%     62.07% |           1      3.45%     65.52% |           0      0.00%     65.52% |           1      3.45%     68.97% |           1      3.45%     72.41% |           2      6.90%     79.31% |           0      0.00%     79.31% |           1      3.45%     82.76% |           1      3.45%     86.21% |           2      6.90%     93.10% |           2      6.90%    100.00% (Unspecified)
board.cache_hierarchy.ruby_system.L2Cache_Controller.MT_IIB.WB_Data_clean::total           29                       (Unspecified)
board.cache_hierarchy.ruby_system.L2Cache_Controller.MT_IIB.Unblock |           0      0.00%      0.00% |          25     46.30%     46.30% |           0      0.00%     46.30% |          16     29.63%     75.93% |           1      1.85%     77.78% |           0      0.00%     77.78% |           1      1.85%     79.63% |           0      0.00%     79.63% |           1      1.85%     81.48% |           1      1.85%     83.33% |           9     16.67%    100.00% |           0      0.00%    100.00% |           0      0.00%    100.00% |           0      0.00%    100.00% |           0      0.00%    100.00% |           0      0.00%    100.00% (Unspecified)
board.cache_hierarchy.ruby_system.L2Cache_Controller.MT_IIB.Unblock::total           54                       (Unspecified)
board.cache_hierarchy.ruby_system.L2Cache_Controller.MT_IB.WB_Data |           0      0.00%      0.00% |          25     65.79%     65.79% |           0      0.00%     65.79% |           1      2.63%     68.42% |           1      2.63%     71.05% |           0      0.00%     71.05% |           1      2.63%     73.68% |           0      0.00%     73.68% |           0      0.00%     73.68% |           1      2.63%     76.32% |           9     23.68%    100.00% |           0      0.00%    100.00% |           0      0.00%    100.00% |           0      0.00%    100.00% |           0      0.00%    100.00% |           0      0.00%    100.00% (Unspecified)
board.cache_hierarchy.ruby_system.L2Cache_Controller.MT_IB.WB_Data::total           38                       (Unspecified)
board.cache_hierarchy.ruby_system.L2Cache_Controller.MT_IB.WB_Data_clean |           0      0.00%      0.00% |           0      0.00%      0.00% |           0      0.00%      0.00% |          15     93.75%     93.75% |           0      0.00%     93.75% |           0      0.00%     93.75% |           0      0.00%     93.75% |           0      0.00%     93.75% |           1      6.25%    100.00% |           0      0.00%    100.00% |           0      0.00%    100.00% |           0      0.00%    100.00% |           0      0.00%    100.00% |           0      0.00%    100.00% |           0      0.00%    100.00% |           0      0.00%    100.00% (Unspecified)
board.cache_hierarchy.ruby_system.L2Cache_Controller.MT_IB.WB_Data_clean::total           16                       (Unspecified)
board.cache_hierarchy.ruby_system.L2Cache_Controller.MT_SB.L1_UPGRADE |           0      0.00%      0.00% |           0      0.00%      0.00% |           0      0.00%      0.00% |           0      0.00%      0.00% |           0      0.00%      0.00% |           0      0.00%      0.00% |           0      0.00%      0.00% |           0      0.00%      0.00% |           0      0.00%      0.00% |           0      0.00%      0.00% |           1     50.00%     50.00% |           0      0.00%     50.00% |           1     50.00%    100.00% |           0      0.00%    100.00% |           0      0.00%    100.00% |           0      0.00%    100.00% (Unspecified)
board.cache_hierarchy.ruby_system.L2Cache_Controller.MT_SB.L1_UPGRADE::total            2                       (Unspecified)
board.cache_hierarchy.ruby_system.L2Cache_Controller.MT_SB.Unblock |          37      6.69%      6.69% |          64     11.57%     18.26% |          61     11.03%     29.29% |          30      5.42%     34.72% |          32      5.79%     40.51% |          58     10.49%     50.99% |          25      4.52%     55.52% |          21      3.80%     59.31% |          20      3.62%     62.93% |          38      6.87%     69.80% |          34      6.15%     75.95% |          19      3.44%     79.39% |          35      6.33%     85.71% |          20      3.62%     89.33% |          35      6.33%     95.66% |          24      4.34%    100.00% (Unspecified)
board.cache_hierarchy.ruby_system.L2Cache_Controller.MT_SB.Unblock::total          553                       (Unspecified)
board.cache_hierarchy.ruby_system.RequestType.LD.latency_hist_seqr::bucket_size           32                       (Unspecified)
board.cache_hierarchy.ruby_system.RequestType.LD.latency_hist_seqr::max_bucket          319                       (Unspecified)
board.cache_hierarchy.ruby_system.RequestType.LD.latency_hist_seqr::samples       284722                       (Unspecified)
board.cache_hierarchy.ruby_system.RequestType.LD.latency_hist_seqr::mean     1.226463                       (Unspecified)
board.cache_hierarchy.ruby_system.RequestType.LD.latency_hist_seqr::gmean     1.030932                       (Unspecified)
board.cache_hierarchy.ruby_system.RequestType.LD.latency_hist_seqr::stdev     2.757875                       (Unspecified)
board.cache_hierarchy.ruby_system.RequestType.LD.latency_hist_seqr |      284532     99.93%     99.93% |         125      0.04%     99.98% |           0      0.00%     99.98% |          38      0.01%     99.99% |          22      0.01%    100.00% |           5      0.00%    100.00% |           0      0.00%    100.00% |           0      0.00%    100.00% |           0      0.00%    100.00% |           0      0.00%    100.00% (Unspecified)
board.cache_hierarchy.ruby_system.RequestType.LD.latency_hist_seqr::total       284722                       (Unspecified)
board.cache_hierarchy.ruby_system.RequestType.LD.hit_latency_hist_seqr::bucket_size            1                       (Unspecified)
board.cache_hierarchy.ruby_system.RequestType.LD.hit_latency_hist_seqr::max_bucket            9                       (Unspecified)
board.cache_hierarchy.ruby_system.RequestType.LD.hit_latency_hist_seqr::samples       281930                       (Unspecified)
board.cache_hierarchy.ruby_system.RequestType.LD.hit_latency_hist_seqr::mean     1.000007                       (Unspecified)
board.cache_hierarchy.ruby_system.RequestType.LD.hit_latency_hist_seqr::gmean     1.000005                       (Unspecified)
board.cache_hierarchy.ruby_system.RequestType.LD.hit_latency_hist_seqr::stdev     0.002663                       (Unspecified)
board.cache_hierarchy.ruby_system.RequestType.LD.hit_latency_hist_seqr |           0      0.00%      0.00% |      281928    100.00%    100.00% |           2      0.00%    100.00% |           0      0.00%    100.00% |           0      0.00%    100.00% |           0      0.00%    100.00% |           0      0.00%    100.00% |           0      0.00%    100.00% |           0      0.00%    100.00% |           0      0.00%    100.00% (Unspecified)
board.cache_hierarchy.ruby_system.RequestType.LD.hit_latency_hist_seqr::total       281930                       (Unspecified)
board.cache_hierarchy.ruby_system.RequestType.LD.miss_latency_hist_seqr::bucket_size           32                       (Unspecified)
board.cache_hierarchy.ruby_system.RequestType.LD.miss_latency_hist_seqr::max_bucket          319                       (Unspecified)
board.cache_hierarchy.ruby_system.RequestType.LD.miss_latency_hist_seqr::samples         2792                       (Unspecified)
board.cache_hierarchy.ruby_system.RequestType.LD.miss_latency_hist_seqr::mean    24.093481                       (Unspecified)
board.cache_hierarchy.ruby_system.RequestType.LD.miss_latency_hist_seqr::gmean    22.333988                       (Unspecified)
board.cache_hierarchy.ruby_system.RequestType.LD.miss_latency_hist_seqr::stdev    15.736483                       (Unspecified)
board.cache_hierarchy.ruby_system.RequestType.LD.miss_latency_hist_seqr |        2602     93.19%     93.19% |         125      4.48%     97.67% |           0      0.00%     97.67% |          38      1.36%     99.03% |          22      0.79%     99.82% |           5      0.18%    100.00% |           0      0.00%    100.00% |           0      0.00%    100.00% |           0      0.00%    100.00% |           0      0.00%    100.00% (Unspecified)
board.cache_hierarchy.ruby_system.RequestType.LD.miss_latency_hist_seqr::total         2792                       (Unspecified)
board.cache_hierarchy.ruby_system.RequestType.ST.latency_hist_seqr::bucket_size          128                       (Unspecified)
board.cache_hierarchy.ruby_system.RequestType.ST.latency_hist_seqr::max_bucket         1279                       (Unspecified)
board.cache_hierarchy.ruby_system.RequestType.ST.latency_hist_seqr::samples       192963                       (Unspecified)
[...]
board.processor.cores9.core.executeStats0.numCCRegWrites        46436                       # Number of times the CC registers were written (Count)
board.processor.cores9.core.executeStats0.numFpRegReads           21                       # Number of times the floating registers were read (Count)
board.processor.cores9.core.executeStats0.numFpRegWrites           12                       # Number of times the floating registers were written (Count)
board.processor.cores9.core.executeStats0.numIntRegReads       267098                       # Number of times the integer registers were read (Count)
board.processor.cores9.core.executeStats0.numIntRegWrites       174355                       # Number of times the integer registers were written (Count)
board.processor.cores9.core.executeStats0.numMemRefs        68990                       # Number of memory refs (Count)
board.processor.cores9.core.executeStats0.numMiscRegReads        98997                       # Number of times the Misc registers were read (Count)
board.processor.cores9.core.executeStats0.numMiscRegWrites            1                       # Number of times the Misc registers were written (Count)
board.processor.cores9.core.executeStats0.numVecAluAccesses            0                       # Number of vector alu accesses (Count)
board.processor.cores9.core.executeStats0.numDiscardedOps            0                       # Number of ops (including micro ops) which were discarded before commit (Count)
board.processor.cores9.core.fetch.predictedBranches        19018                       # Number of branches that fetch has predicted taken (Count)
board.processor.cores9.core.fetch.cycles       885730                       # Number of cycles fetch has run and was not squashing or blocked (Cycle)
board.processor.cores9.core.fetch.squashCycles         4598                       # Number of cycles fetch has spent squashing (Cycle)
board.processor.cores9.core.fetch.miscStallCycles           32                       # Number of cycles fetch has spent waiting on interrupts, or bad addresses, or out of MSHRs (Cycle)
board.processor.cores9.core.fetch.pendingTrapStallCycles          186                       # Number of stall cycles due to pending traps (Cycle)
board.processor.cores9.core.fetch.cacheLines        31579                       # Number of cache lines fetched (Count)
board.processor.cores9.core.fetch.icacheSquashes           97                       # Number of outstanding Icache misses that were squashed (Count)
board.processor.cores9.core.fetch.nisnDist::samples       922285                       # Number of instructions fetched each cycle (Total) (Count)
board.processor.cores9.core.fetch.nisnDist::mean     0.428724                       # Number of instructions fetched each cycle (Total) (Count)
board.processor.cores9.core.fetch.nisnDist::stdev     1.681902                       # Number of instructions fetched each cycle (Total) (Count)
board.processor.cores9.core.fetch.nisnDist::underflows            0      0.00%      0.00% # Number of instructions fetched each cycle (Total) (Count)
board.processor.cores9.core.fetch.nisnDist::0       857230     92.95%     92.95% # Number of instructions fetched each cycle (Total) (Count)
board.processor.cores9.core.fetch.nisnDist::1           67      0.01%     92.95% # Number of instructions fetched each cycle (Total) (Count)
board.processor.cores9.core.fetch.nisnDist::2        10260      1.11%     94.07% # Number of instructions fetched each cycle (Total) (Count)
board.processor.cores9.core.fetch.nisnDist::3           86      0.01%     94.08% # Number of instructions fetched each cycle (Total) (Count)
board.processor.cores9.core.fetch.nisnDist::4        14408      1.56%     95.64% # Number of instructions fetched each cycle (Total) (Count)
board.processor.cores9.core.fetch.nisnDist::5          149      0.02%     95.65% # Number of instructions fetched each cycle (Total) (Count)
board.processor.cores9.core.fetch.nisnDist::6         2169      0.24%     95.89% # Number of instructions fetched each cycle (Total) (Count)
board.processor.cores9.core.fetch.nisnDist::7          158      0.02%     95.91% # Number of instructions fetched each cycle (Total) (Count)
board.processor.cores9.core.fetch.nisnDist::8        37758      4.09%    100.00% # Number of instructions fetched each cycle (Total) (Count)
board.processor.cores9.core.fetch.nisnDist::overflows            0      0.00%    100.00% # Number of instructions fetched each cycle (Total) (Count)
board.processor.cores9.core.fetch.nisnDist::min_value            0                       # Number of instructions fetched each cycle (Total) (Count)
board.processor.cores9.core.fetch.nisnDist::max_value            8                       # Number of instructions fetched each cycle (Total) (Count)
board.processor.cores9.core.fetch.nisnDist::total       922285                       # Number of instructions fetched each cycle (Total) (Count)
board.processor.cores9.core.fetchStats0.numInsts       224059                       # Number of instructions fetched (thread level) (Count)
board.processor.cores9.core.fetchStats0.numOps            0                       # Number of ops (including micro ops) fetched (thread level) (Count)
board.processor.cores9.core.fetchStats0.fetchRate     0.242896                       # Number of inst fetches per cycle ((Count/Cycle))
board.processor.cores9.core.fetchStats0.numBranches        25754                       # Number of branches fetched (Count)
board.processor.cores9.core.fetchStats0.branchRate     0.027919                       # Number of branch fetches per cycle (Ratio)
board.processor.cores9.core.fetchStats0.icacheStallCycles        34038                       # ICache total stall cycles (Cycle)
board.processor.cores9.core.fetchStats0.numFetchSuspends            0                       # Number of times Execute suspended instruction fetching (Count)
board.processor.cores9.core.iew.idleCycles            0                       # Number of cycles IEW is idle (Cycle)
board.processor.cores9.core.iew.squashCycles         2187                       # Number of cycles IEW is squashing (Cycle)
board.processor.cores9.core.iew.blockCycles       799291                       # Number of cycles IEW is blocking (Cycle)
board.processor.cores9.core.iew.unblockCycles         2336                       # Number of cycles IEW is unblocking (Cycle)
board.processor.cores9.core.iew.dispatchedInsts       310953                       # Number of instructions dispatched to IQ (Count)
board.processor.cores9.core.iew.dispSquashedInsts           24                       # Number of squashed instructions skipped by dispatch (Count)
board.processor.cores9.core.iew.dispLoadInsts        80997                       # Number of dispatched load instructions (Count)
board.processor.cores9.core.iew.dispStoreInsts        25273                       # Number of dispatched store instructions (Count)
board.processor.cores9.core.iew.dispNonSpecInsts         4123                       # Number of dispatched non-speculative instructions (Count)
board.processor.cores9.core.iew.iqFullEvents          164                       # Number of times the IQ has become full, causing a stall (Count)
board.processor.cores9.core.iew.lsqFullEvents            1                       # Number of times the LSQ has become full, causing a stall (Count)
board.processor.cores9.core.iew.memOrderViolationEvents         2058                       # Number of memory order violations (Count)
board.processor.cores9.core.iew.predictedTakenIncorrect            6                       # Number of branches that were predicted taken incorrectly (Count)
board.processor.cores9.core.iew.predictedNotTakenIncorrect          134                       # Number of branches that were predicted not taken incorrectly (Count)
board.processor.cores9.core.iew.branchMispredicts          140                       # Number of branch mispredicts detected at execute (Count)
board.processor.cores9.core.iew.instsToCommit       217189                       # Cumulative count of insts sent to commit (Count)
board.processor.cores9.core.iew.writebackCount       217065                       # Cumulative count of insts written-back (Count)
board.processor.cores9.core.iew.producerInst       153465                       # Number of instructions producing a value (Count)
board.processor.cores9.core.iew.consumerInst       247922                       # Number of instructions consuming a value (Count)
board.processor.cores9.core.iew.wbRate       0.235314                       # Insts written-back per cycle ((Count/Cycle))
board.processor.cores9.core.iew.wbFanout     0.619005                       # Average fanout of values written-back ((Count/Count))
board.processor.cores9.core.interrupts.clk_domain.clock         8000                       # Clock period in ticks (Tick)
board.processor.cores9.core.lsq0.forwLoads         4306                       # Number of loads that had data forwarded from stores (Count)
board.processor.cores9.core.lsq0.squashedLoads        49706                       # Number of loads squashed (Count)
board.processor.cores9.core.lsq0.ignoredResponses            0                       # Number of memory responses ignored because the instruction is squashed (Count)
board.processor.cores9.core.lsq0.memOrderViolation         2058                       # Number of memory ordering violations (Count)
board.processor.cores9.core.lsq0.squashedStores        12544                       # Number of stores squashed (Count)
board.processor.cores9.core.lsq0.rescheduledLoads            0                       # Number of loads that were rescheduled (Count)
board.processor.cores9.core.lsq0.blockedByCache            0                       # Number of times an access to memory failed due to the cache being blocked (Count)
board.processor.cores9.core.lsq0.loadToUse::samples        31291                       # Distribution of cycle latency between the first time a load is issued and its completion (Unspecified)
board.processor.cores9.core.lsq0.loadToUse::mean    27.338851                       # Distribution of cycle latency between the first time a load is issued and its completion (Unspecified)
board.processor.cores9.core.lsq0.loadToUse::stdev    93.145535                       # Distribution of cycle latency between the first time a load is issued and its completion (Unspecified)
board.processor.cores9.core.lsq0.loadToUse::0-9        29078     92.93%     92.93% # Distribution of cycle latency between the first time a load is issued and its completion (Unspecified)
board.processor.cores9.core.lsq0.loadToUse::10-19            8      0.03%     92.95% # Distribution of cycle latency between the first time a load is issued and its completion (Unspecified)
board.processor.cores9.core.lsq0.loadToUse::20-29          140      0.45%     93.40% # Distribution of cycle latency between the first time a load is issued and its completion (Unspecified)
board.processor.cores9.core.lsq0.loadToUse::30-39           13      0.04%     93.44% # Distribution of cycle latency between the first time a load is issued and its completion (Unspecified)
board.processor.cores9.core.lsq0.loadToUse::100-109            2      0.01%     93.45% # Distribution of cycle latency between the first time a load is issued and its completion (Unspecified)
board.processor.cores9.core.lsq0.loadToUse::110-119            1      0.00%     93.45% # Distribution of cycle latency between the first time a load is issued and its completion (Unspecified)
board.processor.cores9.core.lsq0.loadToUse::130-139            1      0.00%     93.45% # Distribution of cycle latency between the first time a load is issued and its completion (Unspecified)
board.processor.cores9.core.lsq0.loadToUse::140-149            1      0.00%     93.46% # Distribution of cycle latency between the first time a load is issued and its completion (Unspecified)
board.processor.cores9.core.lsq0.loadToUse::150-159            1      0.00%     93.46% # Distribution of cycle latency between the first time a load is issued and its completion (Unspecified)
board.processor.cores9.core.lsq0.loadToUse::160-169           24      0.08%     93.54% # Distribution of cycle latency between the first time a load is issued and its completion (Unspecified)
board.processor.cores9.core.lsq0.loadToUse::170-179            2      0.01%     93.54% # Distribution of cycle latency between the first time a load is issued and its completion (Unspecified)
board.processor.cores9.core.lsq0.loadToUse::180-189            5      0.02%     93.56% # Distribution of cycle latency between the first time a load is issued and its completion (Unspecified)
board.processor.cores9.core.lsq0.loadToUse::190-199           36      0.12%     93.68% # Distribution of cycle latency between the first time a load is issued and its completion (Unspecified)
board.processor.cores9.core.lsq0.loadToUse::200-209            4      0.01%     93.69% # Distribution of cycle latency between the first time a load is issued and its completion (Unspecified)
board.processor.cores9.core.lsq0.loadToUse::220-229           39      0.12%     93.81% # Distribution of cycle latency between the first time a load is issued and its completion (Unspecified)
board.processor.cores9.core.lsq0.loadToUse::230-239            4      0.01%     93.83% # Distribution of cycle latency between the first time a load is issued and its completion (Unspecified)
board.processor.cores9.core.lsq0.loadToUse::250-259           49      0.16%     93.98% # Distribution of cycle latency between the first time a load is issued and its completion (Unspecified)
board.processor.cores9.core.lsq0.loadToUse::260-269            4      0.01%     94.00% # Distribution of cycle latency between the first time a load is issued and its completion (Unspecified)
board.processor.cores9.core.lsq0.loadToUse::280-289           51      0.16%     94.16% # Distribution of cycle latency between the first time a load is issued and its completion (Unspecified)
board.processor.cores9.core.lsq0.loadToUse::290-299            5      0.02%     94.17% # Distribution of cycle latency between the first time a load is issued and its completion (Unspecified)
board.processor.cores9.core.lsq0.loadToUse::overflows         1823      5.83%    100.00% # Distribution of cycle latency between the first time a load is issued and its completion (Unspecified)
board.processor.cores9.core.lsq0.loadToUse::min_value            2                       # Distribution of cycle latency between the first time a load is issued and its completion (Unspecified)
board.processor.cores9.core.lsq0.loadToUse::max_value          402                       # Distribution of cycle latency between the first time a load is issued and its completion (Unspecified)
board.processor.cores9.core.lsq0.loadToUse::total        31291                       # Distribution of cycle latency between the first time a load is issued and its completion (Unspecified)
board.processor.cores9.core.mmu.dtb.rdAccesses        52033                       # TLB accesses on read requests (Count)
board.processor.cores9.core.mmu.dtb.wrAccesses        16957                       # TLB accesses on write requests (Count)
board.processor.cores9.core.mmu.dtb.rdMisses           66                       # TLB misses on read requests (Count)
board.processor.cores9.core.mmu.dtb.wrMisses           10                       # TLB misses on write requests (Count)
board.processor.cores9.core.mmu.dtb.walker.power_state.pwrStateResidencyTicks::UNDEFINED    788416000                       # Cumulative time (in ticks) in various power states (Tick)
board.processor.cores9.core.mmu.itb.rdAccesses            0                       # TLB accesses on read requests (Count)
board.processor.cores9.core.mmu.itb.wrAccesses        31613                       # TLB accesses on write requests (Count)
board.processor.cores9.core.mmu.itb.rdMisses            0                       # TLB misses on read requests (Count)
board.processor.cores9.core.mmu.itb.wrMisses           74                       # TLB misses on write requests (Count)
board.processor.cores9.core.mmu.itb.walker.power_state.pwrStateResidencyTicks::UNDEFINED    788416000                       # Cumulative time (in ticks) in various power states (Tick)
board.processor.cores9.core.power_state.pwrStateResidencyTicks::ON    788416000                       # Cumulative time (in ticks) in various power states (Tick)
board.processor.cores9.core.rename.squashCycles         2187                       # Number of cycles rename is squashing (Cycle)
board.processor.cores9.core.rename.idleCycles        19685                       # Number of cycles rename is idle (Cycle)
board.processor.cores9.core.rename.blockCycles       830948                       # Number of cycles rename is blocking (Cycle)
board.processor.cores9.core.rename.serializeStallCycles            0                       # count of cycles rename stalled for serializing inst (Cycle)
board.processor.cores9.core.rename.runCycles        35981                       # Number of cycles rename is running (Cycle)
board.processor.cores9.core.rename.unblockCycles        33484                       # Number of cycles rename is unblocking (Cycle)
board.processor.cores9.core.rename.renamedInsts       327917                       # Number of instructions processed by rename (Count)
board.processor.cores9.core.rename.IQFullEvents        26644                       # Number of times rename has blocked due to IQ full (Count)
board.processor.cores9.core.rename.LQFullEvents           63                       # Number of times rename has blocked due to LQ full (Count)
board.processor.cores9.core.rename.SQFullEvents          387                       # Number of times rename has blocked due to SQ full (Count)
board.processor.cores9.core.rename.renamedOperands       468457                       # Number of destination operands rename has renamed (Count)
board.processor.cores9.core.rename.lookups       970898                       # Number of register rename lookups that rename has made (Count)
board.processor.cores9.core.rename.intLookups       434266                       # Number of integer rename lookups (Count)
board.processor.cores9.core.rename.fpLookups           21                       # Number of floating rename lookups (Count)
board.processor.cores9.core.rename.committedMaps       179978                       # Number of HB maps that are committed (Count)
board.processor.cores9.core.rename.undoneMaps       288479                       # Number of HB maps that are undone due to squashing (Count)
board.processor.cores9.core.rename.serializing            0                       # count of serializing insts renamed (Count)
board.processor.cores9.core.rename.tempSerializing            0                       # count of temporary serializing insts renamed (Count)
board.processor.cores9.core.rename.skidInsts        72581                       # count of insts added to the skid buffer (Count)
board.processor.cores9.core.rob.reads         1205722                       # The number of ROB reads (Count)
board.processor.cores9.core.rob.writes         644653                       # The number of ROB writes (Count)
board.processor.cores9.core.thread_0.numInsts        71588                       # Number of Instructions committed (Count)
board.processor.cores9.core.thread_0.numOps       127035                       # Number of Ops committed (Count)
board.processor.cores9.core.thread_0.numMemRefs            0                       # Number of Memory References (Count)
board.workload.inst.arm                             0                       # number of arm instructions executed (Count)
board.workload.inst.quiesce                         0                       # number of quiesce instructions executed (Count)

---------- End Simulation Statistics   ----------
