
---------- Begin Simulation Statistics ----------
simSeconds                                   0.000291                       # Number of seconds simulated (Second)
simTicks                                    291150000                       # Number of ticks simulated (Tick)
finalTick                                   557712000                       # Number of ticks from beginning of simulation (restored from checkpoints and never reset) (Tick)
simFreq                                  1000000000000                       # The number of ticks per simulated second ((Tick/Second))
hostSeconds                                     23.68                       # Real time elapsed on the host (Second)
hostTickRate                                 12297758                       # The number of ticks simulated per host second (ticks/s) ((Tick/Second))
hostMemory                                    1579584                       # Number of bytes of host memory used (Byte)
simInsts                                      1603539                       # Number of instructions simulated (Count)
simOps                                        2478112                       # Number of ops (including micro ops) simulated (Count)
hostInstRate                                    67731                       # Simulator instruction rate (inst/s) ((Count/Second))
hostOpRate                                     104671                       # Simulator op (including micro ops) rate (op/s) ((Count/Second))
board.cache_hierarchy.ruby_system.delayHistogram::bucket_size            8                       # delay histogram for all message (Unspecified)
board.cache_hierarchy.ruby_system.delayHistogram::max_bucket           79                       # delay histogram for all message (Unspecified)
board.cache_hierarchy.ruby_system.delayHistogram::samples       179585                       # delay histogram for all message (Unspecified)
board.cache_hierarchy.ruby_system.delayHistogram::mean     1.971584                       # delay histogram for all message (Unspecified)
board.cache_hierarchy.ruby_system.delayHistogram::stdev     4.896699                       # delay histogram for all message (Unspecified)
board.cache_hierarchy.ruby_system.delayHistogram |      155960     86.84%     86.84% |       19718     10.98%     97.82% |        3786      2.11%     99.93% |         113      0.06%    100.00% |           5      0.00%    100.00% |           1      0.00%    100.00% |           0      0.00%    100.00% |           2      0.00%    100.00% |           0      0.00%    100.00% |           0      0.00%    100.00% # delay histogram for all message (Unspecified)
board.cache_hierarchy.ruby_system.delayHistogram::total       179585                       # delay histogram for all message (Unspecified)
board.cache_hierarchy.ruby_system.m_outstandReqHistSeqr::bucket_size            2                       (Unspecified)
board.cache_hierarchy.ruby_system.m_outstandReqHistSeqr::max_bucket           19                       (Unspecified)
board.cache_hierarchy.ruby_system.m_outstandReqHistSeqr::samples      1159492                       (Unspecified)
board.cache_hierarchy.ruby_system.m_outstandReqHistSeqr::mean     1.216710                       (Unspecified)
board.cache_hierarchy.ruby_system.m_outstandReqHistSeqr::gmean     1.158711                       (Unspecified)
board.cache_hierarchy.ruby_system.m_outstandReqHistSeqr::stdev     0.449468                       (Unspecified)
board.cache_hierarchy.ruby_system.m_outstandReqHistSeqr |      917662     79.14%     79.14% |      239930     20.69%     99.84% |        1564      0.13%     99.97% |         176      0.02%     99.99% |          79      0.01%     99.99% |          37      0.00%    100.00% |          16      0.00%    100.00% |          12      0.00%    100.00% |          16      0.00%    100.00% |           0      0.00%    100.00% (Unspecified)
board.cache_hierarchy.ruby_system.m_outstandReqHistSeqr::total      1159492                       (Unspecified)
board.cache_hierarchy.ruby_system.m_latencyHistSeqr::bucket_size          128                       (Unspecified)
board.cache_hierarchy.ruby_system.m_latencyHistSeqr::max_bucket         1279                       (Unspecified)
board.cache_hierarchy.ruby_system.m_latencyHistSeqr::samples      1159643                       (Unspecified)
board.cache_hierarchy.ruby_system.m_latencyHistSeqr::mean     2.550243                       (Unspecified)
board.cache_hierarchy.ruby_system.m_latencyHistSeqr::gmean     1.168897                       (Unspecified)
board.cache_hierarchy.ruby_system.m_latencyHistSeqr::stdev     8.033413                       (Unspecified)
board.cache_hierarchy.ruby_system.m_latencyHistSeqr |     1159496     99.99%     99.99% |         141      0.01%    100.00% |           0      0.00%    100.00% |           0      0.00%    100.00% |           0      0.00%    100.00% |           1      0.00%    100.00% |           5      0.00%    100.00% |           0      0.00%    100.00% |           0      0.00%    100.00% |           0      0.00%    100.00% (Unspecified)
board.cache_hierarchy.ruby_system.m_latencyHistSeqr::total      1159643                       (Unspecified)
board.cache_hierarchy.ruby_system.m_hitLatencyHistSeqr::bucket_size           16                       (Unspecified)
board.cache_hierarchy.ruby_system.m_hitLatencyHistSeqr::max_bucket          159                       (Unspecified)
board.cache_hierarchy.ruby_system.m_hitLatencyHistSeqr::samples      1107896                       (Unspecified)
board.cache_hierarchy.ruby_system.m_hitLatencyHistSeqr::mean     1.000435                       (Unspecified)
board.cache_hierarchy.ruby_system.m_hitLatencyHistSeqr::gmean     1.000120                       (Unspecified)
board.cache_hierarchy.ruby_system.m_hitLatencyHistSeqr::stdev     0.153321                       (Unspecified)
board.cache_hierarchy.ruby_system.m_hitLatencyHistSeqr |     1107892    100.00%    100.00% |           0      0.00%    100.00% |           0      0.00%    100.00% |           1      0.00%    100.00% |           1      0.00%    100.00% |           2      0.00%    100.00% |           0      0.00%    100.00% |           0      0.00%    100.00% |           0      0.00%    100.00% |           0      0.00%    100.00% (Unspecified)
board.cache_hierarchy.ruby_system.m_hitLatencyHistSeqr::total      1107896                       (Unspecified)
board.cache_hierarchy.ruby_system.m_missLatencyHistSeqr::bucket_size          128                       (Unspecified)
board.cache_hierarchy.ruby_system.m_missLatencyHistSeqr::max_bucket         1279                       (Unspecified)
board.cache_hierarchy.ruby_system.m_missLatencyHistSeqr::samples        51747                       (Unspecified)
board.cache_hierarchy.ruby_system.m_missLatencyHistSeqr::mean    35.731405                       (Unspecified)
board.cache_hierarchy.ruby_system.m_missLatencyHistSeqr::gmean    32.941775                       (Unspecified)
board.cache_hierarchy.ruby_system.m_missLatencyHistSeqr::stdev    17.126692                       (Unspecified)
board.cache_hierarchy.ruby_system.m_missLatencyHistSeqr |       51600     99.72%     99.72% |         141      0.27%     99.99% |           0      0.00%     99.99% |           0      0.00%     99.99% |           0      0.00%     99.99% |           1      0.00%     99.99% |           5      0.01%    100.00% |           0      0.00%    100.00% |           0      0.00%    100.00% |           0      0.00%    100.00% (Unspecified)
board.cache_hierarchy.ruby_system.m_missLatencyHistSeqr::total        51747                       (Unspecified)
board.cache_hierarchy.ruby_system.delayVCHist.vnet_0::bucket_size            8                       # delay histogram for vnet_0 (Unspecified)
board.cache_hierarchy.ruby_system.delayVCHist.vnet_0::max_bucket           79                       # delay histogram for vnet_0 (Unspecified)
board.cache_hierarchy.ruby_system.delayVCHist.vnet_0::samples        89370                       # delay histogram for vnet_0 (Unspecified)
board.cache_hierarchy.ruby_system.delayVCHist.vnet_0::mean     3.704073                       # delay histogram for vnet_0 (Unspecified)
board.cache_hierarchy.ruby_system.delayVCHist.vnet_0::stdev     6.328035                       # delay histogram for vnet_0 (Unspecified)
board.cache_hierarchy.ruby_system.delayVCHist.vnet_0 |       67928     76.01%     76.01% |       17600     19.69%     95.70% |        3734      4.18%     99.88% |         103      0.12%     99.99% |           3      0.00%    100.00% |           0      0.00%    100.00% |           0      0.00%    100.00% |           2      0.00%    100.00% |           0      0.00%    100.00% |           0      0.00%    100.00% # delay histogram for vnet_0 (Unspecified)
board.cache_hierarchy.ruby_system.delayVCHist.vnet_0::total        89370                       # delay histogram for vnet_0 (Unspecified)
board.cache_hierarchy.ruby_system.delayVCHist.vnet_1::bucket_size            8                       # delay histogram for vnet_1 (Unspecified)
board.cache_hierarchy.ruby_system.delayVCHist.vnet_1::max_bucket           79                       # delay histogram for vnet_1 (Unspecified)
board.cache_hierarchy.ruby_system.delayVCHist.vnet_1::samples        55260                       # delay histogram for vnet_1 (Unspecified)
board.cache_hierarchy.ruby_system.delayVCHist.vnet_1::mean     0.416431                       # delay histogram for vnet_1 (Unspecified)
board.cache_hierarchy.ruby_system.delayVCHist.vnet_1::stdev     1.852254                       # delay histogram for vnet_1 (Unspecified)
board.cache_hierarchy.ruby_system.delayVCHist.vnet_1 |       53077     96.05%     96.05% |        2118      3.83%     99.88% |          52      0.09%     99.98% |          10      0.02%     99.99% |           2      0.00%    100.00% |           1      0.00%    100.00% |           0      0.00%    100.00% |           0      0.00%    100.00% |           0      0.00%    100.00% |           0      0.00%    100.00% # delay histogram for vnet_1 (Unspecified)
board.cache_hierarchy.ruby_system.delayVCHist.vnet_1::total        55260                       # delay histogram for vnet_1 (Unspecified)
board.cache_hierarchy.ruby_system.delayVCHist.vnet_2::bucket_size            1                       # delay histogram for vnet_2 (Unspecified)
board.cache_hierarchy.ruby_system.delayVCHist.vnet_2::max_bucket            9                       # delay histogram for vnet_2 (Unspecified)
board.cache_hierarchy.ruby_system.delayVCHist.vnet_2::samples        34955                       # delay histogram for vnet_2 (Unspecified)
board.cache_hierarchy.ruby_system.delayVCHist.vnet_2::mean     0.000629                       # delay histogram for vnet_2 (Unspecified)
board.cache_hierarchy.ruby_system.delayVCHist.vnet_2::stdev     0.035474                       # delay histogram for vnet_2 (Unspecified)
board.cache_hierarchy.ruby_system.delayVCHist.vnet_2 |       34944     99.97%     99.97% |           0      0.00%     99.97% |          11      0.03%    100.00% |           0      0.00%    100.00% |           0      0.00%    100.00% |           0      0.00%    100.00% |           0      0.00%    100.00% |           0      0.00%    100.00% |           0      0.00%    100.00% |           0      0.00%    100.00% # delay histogram for vnet_2 (Unspecified)
board.cache_hierarchy.ruby_system.delayVCHist.vnet_2::total        34955                       # delay histogram for vnet_2 (Unspecified)
board.cache_hierarchy.ruby_system.Directory_Controller.Fetch          819      0.00%      0.00% (Unspecified)
board.cache_hierarchy.ruby_system.Directory_Controller.Memory_Data          819      0.00%      0.00% (Unspecified)
board.cache_hierarchy.ruby_system.Directory_Controller.I.Fetch          819      0.00%      0.00% (Unspecified)
board.cache_hierarchy.ruby_system.Directory_Controller.IM.Memory_Data          819      0.00%      0.00% (Unspecified)
board.cache_hierarchy.ruby_system.L1Cache_Controller.Load |        7053      2.58%      2.58% |       33339     12.19%     14.77% |       33303     12.18%     26.95% |       33277     12.17%     39.12% |       33285     12.17%     51.29% |       33311     12.18%     63.47% |       33291     12.17%     75.65% |       33303     12.18%     87.83% |       33286     12.17%    100.00% (Unspecified)
board.cache_hierarchy.ruby_system.L1Cache_Controller.Load::total       273448                       (Unspecified)
board.cache_hierarchy.ruby_system.L1Cache_Controller.Ifetch |       11443      1.79%      1.79% |       78615     12.27%     14.05% |       78752     12.29%     26.34% |       78627     12.27%     38.61% |       78644     12.27%     50.89% |       78746     12.29%     63.18% |       78659     12.28%     75.45% |       78671     12.28%     87.73% |       78638     12.27%    100.00% (Unspecified)
board.cache_hierarchy.ruby_system.L1Cache_Controller.Ifetch::total       640795                       (Unspecified)
board.cache_hierarchy.ruby_system.L1Cache_Controller.Store |       11491      4.68%      4.68% |       29422     11.99%     16.67% |       29423     11.99%     28.66% |       29128     11.87%     40.53% |       29128     11.87%     52.40% |       29424     11.99%     64.39% |       29128     11.87%     76.26% |       29128     11.87%     88.13% |       29128     11.87%    100.00% (Unspecified)
board.cache_hierarchy.ruby_system.L1Cache_Controller.Store::total       245400                       (Unspecified)
board.cache_hierarchy.ruby_system.L1Cache_Controller.Inv |          40     30.08%     30.08% |          14     10.53%     40.60% |          16     12.03%     52.63% |          16     12.03%     64.66% |          10      7.52%     72.18% |          13      9.77%     81.95% |          14     10.53%     92.48% |           9      6.77%     99.25% |           1      0.75%    100.00% (Unspecified)
board.cache_hierarchy.ruby_system.L1Cache_Controller.Inv::total          133                       (Unspecified)
board.cache_hierarchy.ruby_system.L1Cache_Controller.L1_Replacement |         597      4.39%      4.39% |        1639     12.06%     16.46% |        1641     12.08%     28.54% |        1613     11.87%     40.41% |        1613     11.87%     52.28% |        1642     12.09%     64.37% |        1613     11.87%     76.24% |        1615     11.89%     88.13% |        1613     11.87%    100.00% (Unspecified)
board.cache_hierarchy.ruby_system.L1Cache_Controller.L1_Replacement::total        13586                       (Unspecified)
board.cache_hierarchy.ruby_system.L1Cache_Controller.Fwd_GETX |          23      0.07%      0.07% |        4043     12.41%     12.48% |        4108     12.61%     25.08% |        4110     12.61%     37.69% |        4050     12.43%     50.12% |        4006     12.29%     62.41% |        4087     12.54%     74.95% |        4110     12.61%     87.57% |        4052     12.43%    100.00% (Unspecified)
board.cache_hierarchy.ruby_system.L1Cache_Controller.Fwd_GETX::total        32589                       (Unspecified)
board.cache_hierarchy.ruby_system.L1Cache_Controller.Fwd_GETS |         391     17.51%     17.51% |        1767     79.13%     96.64% |          14      0.63%     97.27% |          13      0.58%     97.85% |          12      0.54%     98.39% |           9      0.40%     98.79% |          11      0.49%     99.28% |          11      0.49%     99.78% |           5      0.22%    100.00% (Unspecified)
board.cache_hierarchy.ruby_system.L1Cache_Controller.Fwd_GETS::total         2233                       (Unspecified)
board.cache_hierarchy.ruby_system.L1Cache_Controller.Data |           0      0.00%      0.00% |           0      0.00%      0.00% |           0      0.00%      0.00% |           1     33.33%     33.33% |           0      0.00%     33.33% |           2     66.67%    100.00% |           0      0.00%    100.00% |           0      0.00%    100.00% |           0      0.00%    100.00% (Unspecified)
board.cache_hierarchy.ruby_system.L1Cache_Controller.Data::total            3                       (Unspecified)
board.cache_hierarchy.ruby_system.L1Cache_Controller.Data_Exclusive |          58      3.02%      3.02% |        1766     91.84%     94.85% |          15      0.78%     95.63% |          15      0.78%     96.41% |          15      0.78%     97.19% |          14      0.73%     97.92% |          14      0.73%     98.65% |          13      0.68%     99.32% |          13      0.68%    100.00% (Unspecified)
board.cache_hierarchy.ruby_system.L1Cache_Controller.Data_Exclusive::total         1923                       (Unspecified)
board.cache_hierarchy.ruby_system.L1Cache_Controller.DataS_fromL1 |          22      0.99%      0.99% |         322     14.42%     15.41% |        1774     79.44%     94.85% |          19      0.85%     95.70% |          19      0.85%     96.55% |          18      0.81%     97.36% |          22      0.99%     98.34% |          19      0.85%     99.19% |          18      0.81%    100.00% (Unspecified)
board.cache_hierarchy.ruby_system.L1Cache_Controller.DataS_fromL1::total         2233                       (Unspecified)
board.cache_hierarchy.ruby_system.L1Cache_Controller.Data_all_Acks |         530      1.12%      1.12% |        4282      9.02%     10.14% |        4655      9.81%     19.94% |        6360     13.40%     33.34% |        6312     13.30%     46.63% |        6322     13.32%     59.95% |        6336     13.35%     73.30% |        6363     13.40%     86.70% |        6315     13.30%    100.00% (Unspecified)
board.cache_hierarchy.ruby_system.L1Cache_Controller.Data_all_Acks::total        47475                       (Unspecified)
board.cache_hierarchy.ruby_system.L1Cache_Controller.Ack |          19     14.62%     14.62% |          10      7.69%     22.31% |          15     11.54%     33.85% |          16     12.31%     46.15% |          14     10.77%     56.92% |          13     10.00%     66.92% |          14     10.77%     77.69% |          16     12.31%     90.00% |          13     10.00%    100.00% (Unspecified)
board.cache_hierarchy.ruby_system.L1Cache_Controller.Ack::total          130                       (Unspecified)
board.cache_hierarchy.ruby_system.L1Cache_Controller.Ack_all |          18     15.52%     15.52% |          10      8.62%     24.14% |          12     10.34%     34.48% |          13     11.21%     45.69% |          13     11.21%     56.90% |          11      9.48%     66.38% |          12     10.34%     76.72% |          14     12.07%     88.79% |          13     11.21%    100.00% (Unspecified)
board.cache_hierarchy.ruby_system.L1Cache_Controller.Ack_all::total          116                       (Unspecified)
board.cache_hierarchy.ruby_system.L1Cache_Controller.WB_Ack |         217     66.16%     66.16% |          13      3.96%     70.12% |          14      4.27%     74.39% |          14      4.27%     78.66% |          14      4.27%     82.93% |          14      4.27%     87.20% |          14      4.27%     91.46% |          14      4.27%     95.73% |          14      4.27%    100.00% (Unspecified)
board.cache_hierarchy.ruby_system.L1Cache_Controller.WB_Ack::total          328                       (Unspecified)
board.cache_hierarchy.ruby_system.L1Cache_Controller.NP.Load |          79      0.47%      0.47% |        2090     12.41%     12.88% |        2092     12.42%     25.30% |        2097     12.45%     37.76% |        2097     12.45%     50.21% |        2093     12.43%     62.64% |        2098     12.46%     75.10% |        2097     12.45%     87.55% |        2097     12.45%    100.00% (Unspecified)
board.cache_hierarchy.ruby_system.L1Cache_Controller.NP.Load::total        16840                       (Unspecified)
board.cache_hierarchy.ruby_system.L1Cache_Controller.NP.Ifetch |         313     18.08%     18.08% |         188     10.86%     28.94% |         192     11.09%     40.03% |         169      9.76%     49.80% |         168      9.71%     59.50% |         191     11.03%     70.54% |         169      9.76%     80.30% |         172      9.94%     90.24% |         169      9.76%    100.00% (Unspecified)
board.cache_hierarchy.ruby_system.L1Cache_Controller.NP.Ifetch::total         1731                       (Unspecified)
board.cache_hierarchy.ruby_system.L1Cache_Controller.NP.Store |         205     38.90%     38.90% |          61     11.57%     50.47% |          60     11.39%     61.86% |          28      5.31%     67.17% |          28      5.31%     72.49% |          61     11.57%     84.06% |          27      5.12%     89.18% |          29      5.50%     94.69% |          28      5.31%    100.00% (Unspecified)
board.cache_hierarchy.ruby_system.L1Cache_Controller.NP.Store::total          527                       (Unspecified)
board.cache_hierarchy.ruby_system.L1Cache_Controller.NP.Inv |           3    100.00%    100.00% |           0      0.00%    100.00% |           0      0.00%    100.00% |           0      0.00%    100.00% |           0      0.00%    100.00% |           0      0.00%    100.00% |           0      0.00%    100.00% |           0      0.00%    100.00% |           0      0.00%    100.00% (Unspecified)
board.cache_hierarchy.ruby_system.L1Cache_Controller.NP.Inv::total            3                       (Unspecified)
board.cache_hierarchy.ruby_system.L1Cache_Controller.I.Load |          12     32.43%     32.43% |           1      2.70%     35.14% |           7     18.92%     54.05% |           4     10.81%     64.86% |           2      5.41%     70.27% |           5     13.51%     83.78% |           4     10.81%     94.59% |           2      5.41%    100.00% |           0      0.00%    100.00% (Unspecified)
board.cache_hierarchy.ruby_system.L1Cache_Controller.I.Load::total           37                       (Unspecified)
board.cache_hierarchy.ruby_system.L1Cache_Controller.I.Store |           1      0.00%      0.00% |        4030     12.40%     12.40% |        4093     12.59%     25.00% |        4097     12.61%     37.60% |        4051     12.46%     50.07% |        4006     12.33%     62.40% |        4074     12.54%     74.93% |        4095     12.60%     87.53% |        4052     12.47%    100.00% (Unspecified)
board.cache_hierarchy.ruby_system.L1Cache_Controller.I.Store::total        32499                       (Unspecified)
board.cache_hierarchy.ruby_system.L1Cache_Controller.I.L1_Replacement |          25     86.21%     86.21% |           2      6.90%     93.10% |           1      3.45%     96.55% |           1      3.45%    100.00% |           0      0.00%    100.00% |           0      0.00%    100.00% |           0      0.00%    100.00% |           0      0.00%    100.00% |           0      0.00%    100.00% (Unspecified)
board.cache_hierarchy.ruby_system.L1Cache_Controller.I.L1_Replacement::total           29                       (Unspecified)
board.cache_hierarchy.ruby_system.L1Cache_Controller.S.Load |         133      0.86%      0.86% |         381      2.46%      3.32% |        2130     13.77%     17.10% |        2128     13.76%     30.85% |        2137     13.82%     44.67% |        2136     13.81%     58.48% |        2132     13.79%     72.27% |        2153     13.92%     86.19% |        2136     13.81%    100.00% (Unspecified)
board.cache_hierarchy.ruby_system.L1Cache_Controller.S.Load::total        15466                       (Unspecified)
board.cache_hierarchy.ruby_system.L1Cache_Controller.S.Ifetch |       11130      1.74%      1.74% |       78427     12.27%     14.01% |       78560     12.29%     26.31% |       78458     12.28%     38.58% |       78476     12.28%     50.86% |       78555     12.29%     63.16% |       78490     12.28%     75.44% |       78499     12.28%     87.72% |       78469     12.28%    100.00% (Unspecified)
board.cache_hierarchy.ruby_system.L1Cache_Controller.S.Ifetch::total       639064                       (Unspecified)
board.cache_hierarchy.ruby_system.L1Cache_Controller.S.Store |          18     15.93%     15.93% |          10      8.85%     24.78% |          12     10.62%     35.40% |          12     10.62%     46.02% |          13     11.50%     57.52% |           9      7.96%     65.49% |          12     10.62%     76.11% |          14     12.39%     88.50% |          13     11.50%    100.00% (Unspecified)
board.cache_hierarchy.ruby_system.L1Cache_Controller.S.Store::total          113                       (Unspecified)
board.cache_hierarchy.ruby_system.L1Cache_Controller.S.Inv |          37     28.68%     28.68% |          14     10.85%     39.53% |          15     11.63%     51.16% |          16     12.40%     63.57% |          10      7.75%     71.32% |          13     10.08%     81.40% |          14     10.85%     92.25% |           9      6.98%     99.22% |           1      0.78%    100.00% (Unspecified)
board.cache_hierarchy.ruby_system.L1Cache_Controller.S.Inv::total          129                       (Unspecified)
board.cache_hierarchy.ruby_system.L1Cache_Controller.S.L1_Replacement |         355      2.68%      2.68% |        1624     12.28%     14.96% |        1626     12.29%     27.25% |        1598     12.08%     39.33% |        1599     12.09%     51.42% |        1628     12.31%     63.72% |        1599     12.09%     75.81% |        1601     12.10%     87.91% |        1599     12.09%    100.00% (Unspecified)
board.cache_hierarchy.ruby_system.L1Cache_Controller.S.L1_Replacement::total        13229                       (Unspecified)
board.cache_hierarchy.ruby_system.L1Cache_Controller.E.Load |         891     32.93%     32.93% |        1756     64.89%     97.82% |           9      0.33%     98.15% |           8      0.30%     98.45% |           8      0.30%     98.74% |          10      0.37%     99.11% |           8      0.30%     99.41% |           8      0.30%     99.70% |           8      0.30%    100.00% (Unspecified)
board.cache_hierarchy.ruby_system.L1Cache_Controller.E.Load::total         2706                       (Unspecified)
board.cache_hierarchy.ruby_system.L1Cache_Controller.E.Store |          22     23.91%     23.91% |           9      9.78%     33.70% |           9      9.78%     43.48% |           9      9.78%     53.26% |           8      8.70%     61.96% |           9      9.78%     71.74% |          10     10.87%     82.61% |           8      8.70%     91.30% |           8      8.70%    100.00% (Unspecified)
board.cache_hierarchy.ruby_system.L1Cache_Controller.E.Store::total           92                       (Unspecified)
board.cache_hierarchy.ruby_system.L1Cache_Controller.E.L1_Replacement |           4     33.33%     33.33% |           1      8.33%     41.67% |           1      8.33%     50.00% |           1      8.33%     58.33% |           1      8.33%     66.67% |           1      8.33%     75.00% |           1      8.33%     83.33% |           1      8.33%     91.67% |           1      8.33%    100.00% (Unspecified)
board.cache_hierarchy.ruby_system.L1Cache_Controller.E.L1_Replacement::total           12                       (Unspecified)
board.cache_hierarchy.ruby_system.L1Cache_Controller.E.Fwd_GETS |           8      0.45%      0.45% |        1753     98.98%     99.44% |           2      0.11%     99.55% |           2      0.11%     99.66% |           3      0.17%     99.83% |           1      0.06%     99.89% |           0      0.00%     99.89% |           1      0.06%     99.94% |           1      0.06%    100.00% (Unspecified)
board.cache_hierarchy.ruby_system.L1Cache_Controller.E.Fwd_GETS::total         1771                       (Unspecified)
board.cache_hierarchy.ruby_system.L1Cache_Controller.M.Load |        5938      2.49%      2.49% |       29111     12.21%     14.70% |       29065     12.19%     26.89% |       29040     12.18%     39.07% |       29041     12.18%     51.26% |       29067     12.19%     63.45% |       29049     12.19%     75.63% |       29043     12.18%     87.82% |       29045     12.18%    100.00% (Unspecified)
board.cache_hierarchy.ruby_system.L1Cache_Controller.M.Load::total       238399                       (Unspecified)
board.cache_hierarchy.ruby_system.L1Cache_Controller.M.Store |       11245      5.30%      5.30% |       25312     11.93%     17.23% |       25249     11.90%     29.13% |       24982     11.77%     40.91% |       25028     11.80%     52.70% |       25339     11.94%     64.64% |       25005     11.79%     76.43% |       24982     11.77%     88.20% |       25027     11.80%    100.00% (Unspecified)
board.cache_hierarchy.ruby_system.L1Cache_Controller.M.Store::total       212169                       (Unspecified)
board.cache_hierarchy.ruby_system.L1Cache_Controller.M.L1_Replacement |         213     67.41%     67.41% |          12      3.80%     71.20% |          13      4.11%     75.32% |          13      4.11%     79.43% |          13      4.11%     83.54% |          13      4.11%     87.66% |          13      4.11%     91.77% |          13      4.11%     95.89% |          13      4.11%    100.00% (Unspecified)
board.cache_hierarchy.ruby_system.L1Cache_Controller.M.L1_Replacement::total          316                       (Unspecified)
board.cache_hierarchy.ruby_system.L1Cache_Controller.M.Fwd_GETX |          23      0.07%      0.07% |        4043     12.41%     12.48% |        4108     12.61%     25.08% |        4110     12.61%     37.69% |        4050     12.43%     50.12% |        4006     12.29%     62.41% |        4087     12.54%     74.95% |        4110     12.61%     87.57% |        4052     12.43%    100.00% (Unspecified)
board.cache_hierarchy.ruby_system.L1Cache_Controller.M.Fwd_GETX::total        32589                       (Unspecified)
board.cache_hierarchy.ruby_system.L1Cache_Controller.M.Fwd_GETS |         383     82.90%     82.90% |          14      3.03%     85.93% |          12      2.60%     88.53% |          11      2.38%     90.91% |           9      1.95%     92.86% |           8      1.73%     94.59% |          11      2.38%     96.97% |          10      2.16%     99.13% |           4      0.87%    100.00% (Unspecified)
board.cache_hierarchy.ruby_system.L1Cache_Controller.M.Fwd_GETS::total          462                       (Unspecified)
board.cache_hierarchy.ruby_system.L1Cache_Controller.IS.Inv |           0      0.00%      0.00% |           0      0.00%      0.00% |           1    100.00%    100.00% |           0      0.00%    100.00% |           0      0.00%    100.00% |           0      0.00%    100.00% |           0      0.00%    100.00% |           0      0.00%    100.00% |           0      0.00%    100.00% (Unspecified)
board.cache_hierarchy.ruby_system.L1Cache_Controller.IS.Inv::total            1                       (Unspecified)
board.cache_hierarchy.ruby_system.L1Cache_Controller.IS.Data_Exclusive |          58      3.02%      3.02% |        1766     91.84%     94.85% |          15      0.78%     95.63% |          15      0.78%     96.41% |          15      0.78%     97.19% |          14      0.73%     97.92% |          14      0.73%     98.65% |          13      0.68%     99.32% |          13      0.68%    100.00% (Unspecified)
board.cache_hierarchy.ruby_system.L1Cache_Controller.IS.Data_Exclusive::total         1923                       (Unspecified)
board.cache_hierarchy.ruby_system.L1Cache_Controller.IS.DataS_fromL1 |          22      0.99%      0.99% |         322     14.42%     15.41% |        1774     79.44%     94.85% |          19      0.85%     95.70% |          19      0.85%     96.55% |          18      0.81%     97.36% |          22      0.99%     98.34% |          19      0.85%     99.19% |          18      0.81%    100.00% (Unspecified)
board.cache_hierarchy.ruby_system.L1Cache_Controller.IS.DataS_fromL1::total         2233                       (Unspecified)
board.cache_hierarchy.ruby_system.L1Cache_Controller.IS.Data_all_Acks |         324      2.24%      2.24% |         191      1.32%      3.56% |         501      3.47%      7.03% |        2236     15.47%     22.50% |        2233     15.45%     37.96% |        2257     15.62%     53.57% |        2235     15.47%     69.04% |        2239     15.49%     84.53% |        2235     15.47%    100.00% (Unspecified)
board.cache_hierarchy.ruby_system.L1Cache_Controller.IS.Data_all_Acks::total        14451                       (Unspecified)
board.cache_hierarchy.ruby_system.L1Cache_Controller.IM.Data |           0      0.00%      0.00% |           0      0.00%      0.00% |           0      0.00%      0.00% |           1     33.33%     33.33% |           0      0.00%     33.33% |           2     66.67%    100.00% |           0      0.00%    100.00% |           0      0.00%    100.00% |           0      0.00%    100.00% (Unspecified)
board.cache_hierarchy.ruby_system.L1Cache_Controller.IM.Data::total            3                       (Unspecified)
board.cache_hierarchy.ruby_system.L1Cache_Controller.IM.Data_all_Acks |         206      0.62%      0.62% |        4091     12.39%     13.01% |        4153     12.58%     25.59% |        4124     12.49%     38.08% |        4079     12.35%     50.43% |        4065     12.31%     62.74% |        4101     12.42%     75.16% |        4124     12.49%     87.64% |        4080     12.36%    100.00% (Unspecified)
board.cache_hierarchy.ruby_system.L1Cache_Controller.IM.Data_all_Acks::total        33023                       (Unspecified)
board.cache_hierarchy.ruby_system.L1Cache_Controller.SM.Ack |          19     14.62%     14.62% |          10      7.69%     22.31% |          15     11.54%     33.85% |          16     12.31%     46.15% |          14     10.77%     56.92% |          13     10.00%     66.92% |          14     10.77%     77.69% |          16     12.31%     90.00% |          13     10.00%    100.00% (Unspecified)
board.cache_hierarchy.ruby_system.L1Cache_Controller.SM.Ack::total          130                       (Unspecified)
board.cache_hierarchy.ruby_system.L1Cache_Controller.SM.Ack_all |          18     15.52%     15.52% |          10      8.62%     24.14% |          12     10.34%     34.48% |          13     11.21%     45.69% |          13     11.21%     56.90% |          11      9.48%     66.38% |          12     10.34%     76.72% |          14     12.07%     88.79% |          13     11.21%    100.00% (Unspecified)
board.cache_hierarchy.ruby_system.L1Cache_Controller.SM.Ack_all::total          116                       (Unspecified)
board.cache_hierarchy.ruby_system.L1Cache_Controller.IS_I.Data_all_Acks |           0      0.00%      0.00% |           0      0.00%      0.00% |           1    100.00%    100.00% |           0      0.00%    100.00% |           0      0.00%    100.00% |           0      0.00%    100.00% |           0      0.00%    100.00% |           0      0.00%    100.00% |           0      0.00%    100.00% (Unspecified)
board.cache_hierarchy.ruby_system.L1Cache_Controller.IS_I.Data_all_Acks::total            1                       (Unspecified)
board.cache_hierarchy.ruby_system.L1Cache_Controller.M_I.WB_Ack |         217     66.16%     66.16% |          13      3.96%     70.12% |          14      4.27%     74.39% |          14      4.27%     78.66% |          14      4.27%     82.93% |          14      4.27%     87.20% |          14      4.27%     91.46% |          14      4.27%     95.73% |          14      4.27%    100.00% (Unspecified)
board.cache_hierarchy.ruby_system.L1Cache_Controller.M_I.WB_Ack::total          328                       (Unspecified)
board.cache_hierarchy.ruby_system.L2Cache_Controller.L1_GET_INSTR |         207     11.96%     11.96% |         190     10.98%     22.93% |         192     11.09%     34.03% |         215     12.42%     46.45% |         230     13.29%     59.73% |         232     13.40%     73.14% |         248     14.33%     87.46% |         217     12.54%    100.00% (Unspecified)
board.cache_hierarchy.ruby_system.L2Cache_Controller.L1_GET_INSTR::total         1731                       (Unspecified)
board.cache_hierarchy.ruby_system.L2Cache_Controller.L1_GETS |        2086     12.36%     12.36% |        2140     12.68%     25.04% |        2138     12.67%     37.71% |        2092     12.39%     50.10% |        2108     12.49%     62.59% |        2107     12.48%     75.07% |        2114     12.53%     87.60% |        2093     12.40%    100.00% (Unspecified)
board.cache_hierarchy.ruby_system.L2Cache_Controller.L1_GETS::total        16878                       (Unspecified)
board.cache_hierarchy.ruby_system.L2Cache_Controller.L1_GETX |       26943     47.25%     47.25% |          56      0.10%     47.34% |          58      0.10%     47.45% |          50      0.09%     47.53% |          79      0.14%     47.67% |          92      0.16%     47.83% |          65      0.11%     47.95% |       29685     52.05%    100.00% (Unspecified)
board.cache_hierarchy.ruby_system.L2Cache_Controller.L1_GETX::total        57028                       (Unspecified)
board.cache_hierarchy.ruby_system.L2Cache_Controller.L1_UPGRADE |           2      1.75%      1.75% |          31     27.19%     28.95% |          28     24.56%     53.51% |           6      5.26%     58.77% |          13     11.40%     70.18% |          17     14.91%     85.09% |          15     13.16%     98.25% |           2      1.75%    100.00% (Unspecified)
board.cache_hierarchy.ruby_system.L2Cache_Controller.L1_UPGRADE::total          114                       (Unspecified)
board.cache_hierarchy.ruby_system.L2Cache_Controller.L1_PUTX |          39     11.89%     11.89% |          44     13.41%     25.30% |          39     11.89%     37.20% |          34     10.37%     47.56% |          44     13.41%     60.98% |          55     16.77%     77.74% |          38     11.59%     89.33% |          35     10.67%    100.00% (Unspecified)
board.cache_hierarchy.ruby_system.L2Cache_Controller.L1_PUTX::total          328                       (Unspecified)
board.cache_hierarchy.ruby_system.L2Cache_Controller.Mem_Data |          94     11.48%     11.48% |         102     12.45%     23.93% |          96     11.72%     35.65% |          93     11.36%     47.01% |         112     13.68%     60.68% |         115     14.04%     74.73% |         106     12.94%     87.67% |         101     12.33%    100.00% (Unspecified)
board.cache_hierarchy.ruby_system.L2Cache_Controller.Mem_Data::total          819                       (Unspecified)
board.cache_hierarchy.ruby_system.L2Cache_Controller.WB_Data |          50     10.82%     10.82% |          83     17.97%     28.79% |          75     16.23%     45.02% |          50     10.82%     55.84% |          53     11.47%     67.32% |          59     12.77%     80.09% |          48     10.39%     90.48% |          44      9.52%    100.00% (Unspecified)
board.cache_hierarchy.ruby_system.L2Cache_Controller.WB_Data::total          462                       (Unspecified)
board.cache_hierarchy.ruby_system.L2Cache_Controller.WB_Data_clean |         212     11.97%     11.97% |         219     12.37%     24.34% |         222     12.54%     36.87% |         222     12.54%     49.41% |         221     12.48%     61.89% |         229     12.93%     74.82% |         229     12.93%     87.75% |         217     12.25%    100.00% (Unspecified)
board.cache_hierarchy.ruby_system.L2Cache_Controller.WB_Data_clean::total         1771                       (Unspecified)
board.cache_hierarchy.ruby_system.L2Cache_Controller.Unblock |         262     11.73%     11.73% |         302     13.52%     25.26% |         297     13.30%     38.56% |         272     12.18%     50.74% |         274     12.27%     63.01% |         288     12.90%     75.91% |         277     12.40%     88.31% |         261     11.69%    100.00% (Unspecified)
board.cache_hierarchy.ruby_system.L2Cache_Controller.Unblock::total         2233                       (Unspecified)
board.cache_hierarchy.ruby_system.L2Cache_Controller.Exclusive_Unblock |       16531     47.15%     47.15% |         330      0.94%     48.09% |         322      0.92%     49.01% |         290      0.83%     49.83% |         339      0.97%     50.80% |         352      1.00%     51.81% |         326      0.93%     52.74% |       16572     47.26%    100.00% (Unspecified)
board.cache_hierarchy.ruby_system.L2Cache_Controller.Exclusive_Unblock::total        35062                       (Unspecified)
board.cache_hierarchy.ruby_system.L2Cache_Controller.NP.L1_GET_INSTR |          43     11.32%     11.32% |          45     11.84%     23.16% |          46     12.11%     35.26% |          51     13.42%     48.68% |          53     13.95%     62.63% |          48     12.63%     75.26% |          48     12.63%     87.89% |          46     12.11%    100.00% (Unspecified)
board.cache_hierarchy.ruby_system.L2Cache_Controller.NP.L1_GET_INSTR::total          380                       (Unspecified)
board.cache_hierarchy.ruby_system.L2Cache_Controller.NP.L1_GETS |           1      2.56%      2.56% |          11     28.21%     30.77% |           2      5.13%     35.90% |           0      0.00%     35.90% |           9     23.08%     58.97% |           2      5.13%     64.10% |           4     10.26%     74.36% |          10     25.64%    100.00% (Unspecified)
board.cache_hierarchy.ruby_system.L2Cache_Controller.NP.L1_GETS::total           39                       (Unspecified)
board.cache_hierarchy.ruby_system.L2Cache_Controller.NP.L1_GETX |          50     12.50%     12.50% |          46     11.50%     24.00% |          48     12.00%     36.00% |          42     10.50%     46.50% |          50     12.50%     59.00% |          65     16.25%     75.25% |          54     13.50%     88.75% |          45     11.25%    100.00% (Unspecified)
board.cache_hierarchy.ruby_system.L2Cache_Controller.NP.L1_GETX::total          400                       (Unspecified)
board.cache_hierarchy.ruby_system.L2Cache_Controller.SS.L1_GET_INSTR |         164     12.16%     12.16% |         144     10.67%     22.83% |         146     10.82%     33.65% |         164     12.16%     45.81% |         177     13.12%     58.93% |         184     13.64%     72.57% |         199     14.75%     87.32% |         171     12.68%    100.00% (Unspecified)
board.cache_hierarchy.ruby_system.L2Cache_Controller.SS.L1_GET_INSTR::total         1349                       (Unspecified)
board.cache_hierarchy.ruby_system.L2Cache_Controller.SS.L1_GETS |        1591     12.51%     12.51% |        1595     12.54%     25.05% |        1603     12.60%     37.65% |        1586     12.47%     50.11% |        1587     12.48%     62.59% |        1576     12.39%     74.98% |        1591     12.51%     87.49% |        1592     12.51%    100.00% (Unspecified)
board.cache_hierarchy.ruby_system.L2Cache_Controller.SS.L1_GETS::total        12721                       (Unspecified)
board.cache_hierarchy.ruby_system.L2Cache_Controller.SS.L1_GETX |           0      0.00%      0.00% |           0      0.00%      0.00% |           1     33.33%     33.33% |           0      0.00%     33.33% |           2     66.67%    100.00% |           0      0.00%    100.00% |           0      0.00%    100.00% |           0      0.00%    100.00% (Unspecified)
board.cache_hierarchy.ruby_system.L2Cache_Controller.SS.L1_GETX::total            3                       (Unspecified)
board.cache_hierarchy.ruby_system.L2Cache_Controller.SS.L1_UPGRADE |           2      1.77%      1.77% |          31     27.43%     29.20% |          27     23.89%     53.10% |           6      5.31%     58.41% |          13     11.50%     69.91% |          17     15.04%     84.96% |          15     13.27%     98.23% |           2      1.77%    100.00% (Unspecified)
board.cache_hierarchy.ruby_system.L2Cache_Controller.SS.L1_UPGRADE::total          113                       (Unspecified)
board.cache_hierarchy.ruby_system.L2Cache_Controller.M.L1_GETS |         232     12.31%     12.31% |         232     12.31%     24.63% |         235     12.47%     37.10% |         234     12.42%     49.52% |         238     12.63%     62.15% |         241     12.79%     74.95% |         242     12.85%     87.79% |         230     12.21%    100.00% (Unspecified)
board.cache_hierarchy.ruby_system.L2Cache_Controller.M.L1_GETS::total         1884                       (Unspecified)
board.cache_hierarchy.ruby_system.L2Cache_Controller.M.L1_GETX |           2      5.88%      5.88% |           2      5.88%     11.76% |           2      5.88%     17.65% |           3      8.82%     26.47% |          12     35.29%     61.76% |           9     26.47%     88.24% |           1      2.94%     91.18% |           3      8.82%    100.00% (Unspecified)
board.cache_hierarchy.ruby_system.L2Cache_Controller.M.L1_GETX::total           34                       (Unspecified)
board.cache_hierarchy.ruby_system.L2Cache_Controller.MT.L1_GETS |         262     11.73%     11.73% |         302     13.52%     25.26% |         297     13.30%     38.56% |         272     12.18%     50.74% |         274     12.27%     63.01% |         288     12.90%     75.91% |         277     12.40%     88.31% |         261     11.69%    100.00% (Unspecified)
board.cache_hierarchy.ruby_system.L2Cache_Controller.MT.L1_GETS::total         2233                       (Unspecified)
board.cache_hierarchy.ruby_system.L2Cache_Controller.MT.L1_GETX |       16244     49.85%     49.85% |           8      0.02%     49.87% |           7      0.02%     49.89% |           5      0.02%     49.91% |          15      0.05%     49.95% |          18      0.06%     50.01% |          10      0.03%     50.04% |       16282     49.96%    100.00% (Unspecified)
board.cache_hierarchy.ruby_system.L2Cache_Controller.MT.L1_GETX::total        32589                       (Unspecified)
board.cache_hierarchy.ruby_system.L2Cache_Controller.MT.L1_PUTX |          39     11.89%     11.89% |          44     13.41%     25.30% |          39     11.89%     37.20% |          34     10.37%     47.56% |          44     13.41%     60.98% |          55     16.77%     77.74% |          38     11.59%     89.33% |          35     10.67%    100.00% (Unspecified)
board.cache_hierarchy.ruby_system.L2Cache_Controller.MT.L1_PUTX::total          328                       (Unspecified)
board.cache_hierarchy.ruby_system.L2Cache_Controller.ISS.Mem_Data |           1      2.56%      2.56% |          11     28.21%     30.77% |           2      5.13%     35.90% |           0      0.00%     35.90% |           9     23.08%     58.97% |           2      5.13%     64.10% |           4     10.26%     74.36% |          10     25.64%    100.00% (Unspecified)
board.cache_hierarchy.ruby_system.L2Cache_Controller.ISS.Mem_Data::total           39                       (Unspecified)
board.cache_hierarchy.ruby_system.L2Cache_Controller.IS.L1_GET_INSTR |           0      0.00%      0.00% |           1     50.00%     50.00% |           0      0.00%     50.00% |           0      0.00%     50.00% |           0      0.00%     50.00% |           0      0.00%     50.00% |           1     50.00%    100.00% |           0      0.00%    100.00% (Unspecified)
board.cache_hierarchy.ruby_system.L2Cache_Controller.IS.L1_GET_INSTR::total            2                       (Unspecified)
board.cache_hierarchy.ruby_system.L2Cache_Controller.IS.Mem_Data |          43     11.32%     11.32% |          45     11.84%     23.16% |          46     12.11%     35.26% |          51     13.42%     48.68% |          53     13.95%     62.63% |          48     12.63%     75.26% |          48     12.63%     87.89% |          46     12.11%    100.00% (Unspecified)
board.cache_hierarchy.ruby_system.L2Cache_Controller.IS.Mem_Data::total          380                       (Unspecified)
board.cache_hierarchy.ruby_system.L2Cache_Controller.IM.Mem_Data |          50     12.50%     12.50% |          46     11.50%     24.00% |          48     12.00%     36.00% |          42     10.50%     46.50% |          50     12.50%     59.00% |          65     16.25%     75.25% |          54     13.50%     88.75% |          45     11.25%    100.00% (Unspecified)
board.cache_hierarchy.ruby_system.L2Cache_Controller.IM.Mem_Data::total          400                       (Unspecified)
board.cache_hierarchy.ruby_system.L2Cache_Controller.SS_MB.Exclusive_Unblock |           2      1.72%      1.72% |          31     26.72%     28.45% |          28     24.14%     52.59% |           6      5.17%     57.76% |          15     12.93%     70.69% |          17     14.66%     85.34% |          15     12.93%     98.28% |           2      1.72%    100.00% (Unspecified)
board.cache_hierarchy.ruby_system.L2Cache_Controller.SS_MB.Exclusive_Unblock::total          116                       (Unspecified)
board.cache_hierarchy.ruby_system.L2Cache_Controller.MT_MB.L1_GETX |       10647     44.36%     44.36% |           0      0.00%     44.36% |           0      0.00%     44.36% |           0      0.00%     44.36% |           0      0.00%     44.36% |           0      0.00%     44.36% |           0      0.00%     44.36% |       13355     55.64%    100.00% (Unspecified)
board.cache_hierarchy.ruby_system.L2Cache_Controller.MT_MB.L1_GETX::total        24002                       (Unspecified)
board.cache_hierarchy.ruby_system.L2Cache_Controller.MT_MB.Exclusive_Unblock |       16529     47.30%     47.30% |         299      0.86%     48.15% |         294      0.84%     49.00% |         284      0.81%     49.81% |         324      0.93%     50.74% |         335      0.96%     51.69% |         311      0.89%     52.58% |       16570     47.42%    100.00% (Unspecified)
board.cache_hierarchy.ruby_system.L2Cache_Controller.MT_MB.Exclusive_Unblock::total        34946                       (Unspecified)
board.cache_hierarchy.ruby_system.L2Cache_Controller.MT_IIB.WB_Data |          49     10.89%     10.89% |          76     16.89%     27.78% |          73     16.22%     44.00% |          49     10.89%     54.89% |          53     11.78%     66.67% |          59     13.11%     79.78% |          48     10.67%     90.44% |          43      9.56%    100.00% (Unspecified)
board.cache_hierarchy.ruby_system.L2Cache_Controller.MT_IIB.WB_Data::total          450                       (Unspecified)
board.cache_hierarchy.ruby_system.L2Cache_Controller.MT_IIB.WB_Data_clean |         212     12.04%     12.04% |         214     12.15%     24.19% |         222     12.61%     36.80% |         217     12.32%     49.12% |         221     12.55%     61.67% |         229     13.00%     74.67% |         229     13.00%     87.68% |         217     12.32%    100.00% (Unspecified)
board.cache_hierarchy.ruby_system.L2Cache_Controller.MT_IIB.WB_Data_clean::total         1761                       (Unspecified)
board.cache_hierarchy.ruby_system.L2Cache_Controller.MT_IIB.Unblock |           1      4.55%      4.55% |          12     54.55%     59.09% |           2      9.09%     68.18% |           6     27.27%     95.45% |           0      0.00%     95.45% |           0      0.00%     95.45% |           0      0.00%     95.45% |           1      4.55%    100.00% (Unspecified)
board.cache_hierarchy.ruby_system.L2Cache_Controller.MT_IIB.Unblock::total           22                       (Unspecified)
board.cache_hierarchy.ruby_system.L2Cache_Controller.MT_IB.WB_Data |           1      8.33%      8.33% |           7     58.33%     66.67% |           2     16.67%     83.33% |           1      8.33%     91.67% |           0      0.00%     91.67% |           0      0.00%     91.67% |           0      0.00%     91.67% |           1      8.33%    100.00% (Unspecified)
board.cache_hierarchy.ruby_system.L2Cache_Controller.MT_IB.WB_Data::total           12                       (Unspecified)
board.cache_hierarchy.ruby_system.L2Cache_Controller.MT_IB.WB_Data_clean |           0      0.00%      0.00% |           5     50.00%     50.00% |           0      0.00%     50.00% |           5     50.00%    100.00% |           0      0.00%    100.00% |           0      0.00%    100.00% |           0      0.00%    100.00% |           0      0.00%    100.00% (Unspecified)
board.cache_hierarchy.ruby_system.L2Cache_Controller.MT_IB.WB_Data_clean::total           10                       (Unspecified)
board.cache_hierarchy.ruby_system.L2Cache_Controller.MT_SB.L1_GETS |           0      0.00%      0.00% |           0      0.00%      0.00% |           1    100.00%    100.00% |           0      0.00%    100.00% |           0      0.00%    100.00% |           0      0.00%    100.00% |           0      0.00%    100.00% |           0      0.00%    100.00% (Unspecified)
board.cache_hierarchy.ruby_system.L2Cache_Controller.MT_SB.L1_GETS::total            1                       (Unspecified)
board.cache_hierarchy.ruby_system.L2Cache_Controller.MT_SB.L1_UPGRADE |           0      0.00%      0.00% |           0      0.00%      0.00% |           1    100.00%    100.00% |           0      0.00%    100.00% |           0      0.00%    100.00% |           0      0.00%    100.00% |           0      0.00%    100.00% |           0      0.00%    100.00% (Unspecified)
board.cache_hierarchy.ruby_system.L2Cache_Controller.MT_SB.L1_UPGRADE::total            1                       (Unspecified)
board.cache_hierarchy.ruby_system.L2Cache_Controller.MT_SB.Unblock |         261     11.80%     11.80% |         290     13.12%     24.92% |         295     13.34%     38.26% |         266     12.03%     50.29% |         274     12.39%     62.69% |         288     13.03%     75.71% |         277     12.53%     88.24% |         260     11.76%    100.00% (Unspecified)
board.cache_hierarchy.ruby_system.L2Cache_Controller.MT_SB.Unblock::total         2211                       (Unspecified)
board.cache_hierarchy.ruby_system.RequestType.LD.latency_hist_seqr::bucket_size           32                       (Unspecified)
board.cache_hierarchy.ruby_system.RequestType.LD.latency_hist_seqr::max_bucket          319                       (Unspecified)
board.cache_hierarchy.ruby_system.RequestType.LD.latency_hist_seqr::samples       273448                       (Unspecified)
board.cache_hierarchy.ruby_system.RequestType.LD.latency_hist_seqr::mean     2.284731                       (Unspecified)
board.cache_hierarchy.ruby_system.RequestType.LD.latency_hist_seqr::gmean     1.207433                       (Unspecified)
board.cache_hierarchy.ruby_system.RequestType.LD.latency_hist_seqr::stdev     5.277488                       (Unspecified)
board.cache_hierarchy.ruby_system.RequestType.LD.latency_hist_seqr |      272005     99.47%     99.47% |        1404      0.51%     99.99% |           0      0.00%     99.99% |          21      0.01%     99.99% |          14      0.01%    100.00% |           4      0.00%    100.00% |           0      0.00%    100.00% |           0      0.00%    100.00% |           0      0.00%    100.00% |           0      0.00%    100.00% (Unspecified)
board.cache_hierarchy.ruby_system.RequestType.LD.latency_hist_seqr::total       273448                       (Unspecified)
board.cache_hierarchy.ruby_system.RequestType.LD.hit_latency_hist_seqr::bucket_size            1                       (Unspecified)
board.cache_hierarchy.ruby_system.RequestType.LD.hit_latency_hist_seqr::max_bucket            9                       (Unspecified)
board.cache_hierarchy.ruby_system.RequestType.LD.hit_latency_hist_seqr::samples       256571                       (Unspecified)
board.cache_hierarchy.ruby_system.RequestType.LD.hit_latency_hist_seqr::mean     1.000008                       (Unspecified)
board.cache_hierarchy.ruby_system.RequestType.LD.hit_latency_hist_seqr::gmean     1.000005                       (Unspecified)
board.cache_hierarchy.ruby_system.RequestType.LD.hit_latency_hist_seqr::stdev     0.002792                       (Unspecified)
board.cache_hierarchy.ruby_system.RequestType.LD.hit_latency_hist_seqr |           0      0.00%      0.00% |      256569    100.00%    100.00% |           2      0.00%    100.00% |           0      0.00%    100.00% |           0      0.00%    100.00% |           0      0.00%    100.00% |           0      0.00%    100.00% |           0      0.00%    100.00% |           0      0.00%    100.00% |           0      0.00%    100.00% (Unspecified)
board.cache_hierarchy.ruby_system.RequestType.LD.hit_latency_hist_seqr::total       256571                       (Unspecified)
board.cache_hierarchy.ruby_system.RequestType.LD.miss_latency_hist_seqr::bucket_size           32                       (Unspecified)
board.cache_hierarchy.ruby_system.RequestType.LD.miss_latency_hist_seqr::max_bucket          319                       (Unspecified)
board.cache_hierarchy.ruby_system.RequestType.LD.miss_latency_hist_seqr::samples        16877                       (Unspecified)
board.cache_hierarchy.ruby_system.RequestType.LD.miss_latency_hist_seqr::mean    21.815607                       (Unspecified)
board.cache_hierarchy.ruby_system.RequestType.LD.miss_latency_hist_seqr::gmean    21.200343                       (Unspecified)
board.cache_hierarchy.ruby_system.RequestType.LD.miss_latency_hist_seqr::stdev     6.687414                       (Unspecified)
board.cache_hierarchy.ruby_system.RequestType.LD.miss_latency_hist_seqr |       15434     91.45%     91.45% |        1404      8.32%     99.77% |           0      0.00%     99.77% |          21      0.12%     99.89% |          14      0.08%     99.98% |           4      0.02%    100.00% |           0      0.00%    100.00% |           0      0.00%    100.00% |           0      0.00%    100.00% |           0      0.00%    100.00% (Unspecified)
board.cache_hierarchy.ruby_system.RequestType.LD.miss_latency_hist_seqr::total        16877                       (Unspecified)
board.cache_hierarchy.ruby_system.RequestType.ST.latency_hist_seqr::bucket_size          128                       (Unspecified)
board.cache_hierarchy.ruby_system.RequestType.ST.latency_hist_seqr::max_bucket         1279                       (Unspecified)
board.cache_hierarchy.ruby_system.RequestType.ST.latency_hist_seqr::samples       178869                       (Unspecified)
board.cache_hierarchy.ruby_system.RequestType.ST.latency_hist_seqr::mean     1.274452                       (Unspecified)
board.cache_hierarchy.ruby_system.RequestType.ST.latency_hist_seqr::gmean     1.013922                       (Unspecified)
board.cache_hierarchy.ruby_system.RequestType.ST.latency_hist_seqr::stdev     5.913689                       (Unspecified)
board.cache_hierarchy.ruby_system.RequestType.ST.latency_hist_seqr |      178821     99.97%     99.97% |          46      0.03%    100.00% |           0      0.00%    100.00% |           0      0.00%    100.00% |           0      0.00%    100.00% |           0      0.00%    100.00% |           2      0.00%    100.00% |           0      0.00%    100.00% |           0      0.00%    100.00% |           0      0.00%    100.00% (Unspecified)
board.cache_hierarchy.ruby_system.RequestType.ST.latency_hist_seqr::total       178869                       (Unspecified)
board.cache_hierarchy.ruby_system.RequestType.ST.hit_latency_hist_seqr::bucket_size           16                       (Unspecified)
board.cache_hierarchy.ruby_system.RequestType.ST.hit_latency_hist_seqr::max_bucket          159                       (Unspecified)
board.cache_hierarchy.ruby_system.RequestType.ST.hit_latency_hist_seqr::samples       178325                       (Unspecified)
board.cache_hierarchy.ruby_system.RequestType.ST.hit_latency_hist_seqr::mean     1.002619                       (Unspecified)
board.cache_hierarchy.ruby_system.RequestType.ST.hit_latency_hist_seqr::gmean     1.000685                       (Unspecified)
board.cache_hierarchy.ruby_system.RequestType.ST.hit_latency_hist_seqr::stdev     0.382044                       (Unspecified)
board.cache_hierarchy.ruby_system.RequestType.ST.hit_latency_hist_seqr |      178321    100.00%    100.00% |           0      0.00%    100.00% |           0      0.00%    100.00% |           1      0.00%    100.00% |           1      0.00%    100.00% |           2      0.00%    100.00% |           0      0.00%    100.00% |           0      0.00%    100.00% |           0      0.00%    100.00% |           0      0.00%    100.00% (Unspecified)
board.cache_hierarchy.ruby_system.RequestType.ST.hit_latency_hist_seqr::total       178325                       (Unspecified)
board.cache_hierarchy.ruby_system.RequestType.ST.miss_latency_hist_seqr::bucket_size          128                       (Unspecified)
board.cache_hierarchy.ruby_system.RequestType.ST.miss_latency_hist_seqr::max_bucket         1279                       (Unspecified)
board.cache_hierarchy.ruby_system.RequestType.ST.miss_latency_hist_seqr::samples          544                       (Unspecified)
board.cache_hierarchy.ruby_system.RequestType.ST.miss_latency_hist_seqr::mean    90.382353                       (Unspecified)
board.cache_hierarchy.ruby_system.RequestType.ST.miss_latency_hist_seqr::gmean    75.310920                       (Unspecified)
board.cache_hierarchy.ruby_system.RequestType.ST.miss_latency_hist_seqr::stdev    59.100664                       (Unspecified)
board.cache_hierarchy.ruby_system.RequestType.ST.miss_latency_hist_seqr |         496     91.18%     91.18% |          46      8.46%     99.63% |           0      0.00%     99.63% |           0      0.00%     99.63% |           0      0.00%     99.63% |           0      0.00%     99.63% |           2      0.37%    100.00% |           0      0.00%    100.00% |           0      0.00%    100.00% |           0      0.00%    100.00% (Unspecified)
board.cache_hierarchy.ruby_system.RequestType.ST.miss_latency_hist_seqr::total          544                       (Unspecified)
board.cache_hierarchy.ruby_system.RequestType.IFETCH.latency_hist_seqr::bucket_size          128                       (Unspecified)
board.cache_hierarchy.ruby_system.RequestType.IFETCH.latency_hist_seqr::max_bucket         1279                       (Unspecified)
board.cache_hierarchy.ruby_system.RequestType.IFETCH.latency_hist_seqr::samples       640795                       (Unspecified)
board.cache_hierarchy.ruby_system.RequestType.IFETCH.latency_hist_seqr::mean     1.109281                       (Unspecified)
board.cache_hierarchy.ruby_system.RequestType.IFETCH.latency_hist_seqr::gmean     1.009131                       (Unspecified)
board.cache_hierarchy.ruby_system.RequestType.IFETCH.latency_hist_seqr::stdev     3.449769                       (Unspecified)
board.cache_hierarchy.ruby_system.RequestType.IFETCH.latency_hist_seqr |      640716     99.99%     99.99% |          75      0.01%    100.00% |           0      0.00%    100.00% |           0      0.00%    100.00% |           0      0.00%    100.00% |           1      0.00%    100.00% |           3      0.00%    100.00% |           0      0.00%    100.00% |           0      0.00%    100.00% |           0      0.00%    100.00% (Unspecified)
board.cache_hierarchy.ruby_system.RequestType.IFETCH.latency_hist_seqr::total       640795                       (Unspecified)
board.cache_hierarchy.ruby_system.RequestType.IFETCH.hit_latency_hist_seqr::bucket_size            1                       (Unspecified)
board.cache_hierarchy.ruby_system.RequestType.IFETCH.hit_latency_hist_seqr::max_bucket            9                       (Unspecified)
board.cache_hierarchy.ruby_system.RequestType.IFETCH.hit_latency_hist_seqr::samples       639064                       (Unspecified)
board.cache_hierarchy.ruby_system.RequestType.IFETCH.hit_latency_hist_seqr::mean            1                       (Unspecified)
board.cache_hierarchy.ruby_system.RequestType.IFETCH.hit_latency_hist_seqr::gmean            1                       (Unspecified)
board.cache_hierarchy.ruby_system.RequestType.IFETCH.hit_latency_hist_seqr |           0      0.00%      0.00% |      639064    100.00%    100.00% |           0      0.00%    100.00% |           0      0.00%    100.00% |           0      0.00%    100.00% |           0      0.00%    100.00% |           0      0.00%    100.00% |           0      0.00%    100.00% |           0      0.00%    100.00% |           0      0.00%    100.00% (Unspecified)
board.cache_hierarchy.ruby_system.RequestType.IFETCH.hit_latency_hist_seqr::total       639064                       (Unspecified)
board.cache_hierarchy.ruby_system.RequestType.IFETCH.miss_latency_hist_seqr::bucket_size          128                       (Unspecified)
board.cache_hierarchy.ruby_system.RequestType.IFETCH.miss_latency_hist_seqr::max_bucket         1279                       (Unspecified)
board.cache_hierarchy.ruby_system.RequestType.IFETCH.miss_latency_hist_seqr::samples         1731                       (Unspecified)
board.cache_hierarchy.ruby_system.RequestType.IFETCH.miss_latency_hist_seqr::mean    41.454650                       (Unspecified)
board.cache_hierarchy.ruby_system.RequestType.IFETCH.miss_latency_hist_seqr::gmean    28.931483                       (Unspecified)
board.cache_hierarchy.ruby_system.RequestType.IFETCH.miss_latency_hist_seqr::stdev    52.678352                       (Unspecified)
board.cache_hierarchy.ruby_system.RequestType.IFETCH.miss_latency_hist_seqr |        1652     95.44%     95.44% |          75      4.33%     99.77% |           0      0.00%     99.77% |           0      0.00%     99.77% |           0      0.00%     99.77% |           1      0.06%     99.83% |           3      0.17%    100.00% |           0      0.00%    100.00% |           0      0.00%    100.00% |           0      0.00%    100.00% (Unspecified)
board.cache_hierarchy.ruby_system.RequestType.IFETCH.miss_latency_hist_seqr::total         1731                       (Unspecified)
board.cache_hierarchy.ruby_system.RequestType.RMW_Read.latency_hist_seqr::bucket_size           16                       (Unspecified)
board.cache_hierarchy.ruby_system.RequestType.RMW_Read.latency_hist_seqr::max_bucket          159                       (Unspecified)
board.cache_hierarchy.ruby_system.RequestType.RMW_Read.latency_hist_seqr::samples          227                       (Unspecified)
board.cache_hierarchy.ruby_system.RequestType.RMW_Read.latency_hist_seqr::mean     5.088106                       (Unspecified)
board.cache_hierarchy.ruby_system.RequestType.RMW_Read.latency_hist_seqr::gmean     1.364496                       (Unspecified)
board.cache_hierarchy.ruby_system.RequestType.RMW_Read.latency_hist_seqr::stdev    18.187596                       (Unspecified)
board.cache_hierarchy.ruby_system.RequestType.RMW_Read.latency_hist_seqr |         211     92.95%     92.95% |           3      1.32%     94.27% |           8      3.52%     97.80% |           0      0.00%     97.80% |           0      0.00%     97.80% |           0      0.00%     97.80% |           3      1.32%     99.12% |           0      0.00%     99.12% |           2      0.88%    100.00% |           0      0.00%    100.00% (Unspecified)
board.cache_hierarchy.ruby_system.RequestType.RMW_Read.latency_hist_seqr::total          227                       (Unspecified)
board.cache_hierarchy.ruby_system.RequestType.RMW_Read.hit_latency_hist_seqr::bucket_size            1                       (Unspecified)
board.cache_hierarchy.ruby_system.RequestType.RMW_Read.hit_latency_hist_seqr::max_bucket            9                       (Unspecified)
board.cache_hierarchy.ruby_system.RequestType.RMW_Read.hit_latency_hist_seqr::samples          211                       (Unspecified)
board.cache_hierarchy.ruby_system.RequestType.RMW_Read.hit_latency_hist_seqr::mean     1.061611                       (Unspecified)
board.cache_hierarchy.ruby_system.RequestType.RMW_Read.hit_latency_hist_seqr::gmean     1.043631                       (Unspecified)
board.cache_hierarchy.ruby_system.RequestType.RMW_Read.hit_latency_hist_seqr::stdev     0.241020                       (Unspecified)
board.cache_hierarchy.ruby_system.RequestType.RMW_Read.hit_latency_hist_seqr |           0      0.00%      0.00% |         198     93.84%     93.84% |          13      6.16%    100.00% |           0      0.00%    100.00% |           0      0.00%    100.00% |           0      0.00%    100.00% |           0      0.00%    100.00% |           0      0.00%    100.00% |           0      0.00%    100.00% |           0      0.00%    100.00% (Unspecified)
board.cache_hierarchy.ruby_system.RequestType.RMW_Read.hit_latency_hist_seqr::total          211                       (Unspecified)
board.cache_hierarchy.ruby_system.RequestType.RMW_Read.miss_latency_hist_seqr::bucket_size           16                       (Unspecified)
board.cache_hierarchy.ruby_system.RequestType.RMW_Read.miss_latency_hist_seqr::max_bucket          159                       (Unspecified)
board.cache_hierarchy.ruby_system.RequestType.RMW_Read.miss_latency_hist_seqr::samples           16                       (Unspecified)
board.cache_hierarchy.ruby_system.RequestType.RMW_Read.miss_latency_hist_seqr::mean    58.187500                       (Unspecified)
board.cache_hierarchy.ruby_system.RequestType.RMW_Read.miss_latency_hist_seqr::gmean    46.809404                       (Unspecified)
board.cache_hierarchy.ruby_system.RequestType.RMW_Read.miss_latency_hist_seqr::stdev    41.803060                       (Unspecified)
board.cache_hierarchy.ruby_system.RequestType.RMW_Read.miss_latency_hist_seqr |           0      0.00%      0.00% |           3     18.75%     18.75% |           8     50.00%     68.75% |           0      0.00%     68.75% |           0      0.00%     68.75% |           0      0.00%     68.75% |           3     18.75%     87.50% |           0      0.00%     87.50% |           2     12.50%    100.00% |           0      0.00%    100.00% (Unspecified)
board.cache_hierarchy.ruby_system.RequestType.RMW_Read.miss_latency_hist_seqr::total           16                       (Unspecified)
board.cache_hierarchy.ruby_system.RequestType.Locked_RMW_Read.latency_hist_seqr::bucket_size            8                       (Unspecified)
board.cache_hierarchy.ruby_system.RequestType.Locked_RMW_Read.latency_hist_seqr::max_bucket           79                       (Unspecified)
board.cache_hierarchy.ruby_system.RequestType.Locked_RMW_Read.latency_hist_seqr::samples        33152                       (Unspecified)
board.cache_hierarchy.ruby_system.RequestType.Locked_RMW_Read.latency_hist_seqr::mean    41.008898                       (Unspecified)
board.cache_hierarchy.ruby_system.RequestType.Locked_RMW_Read.latency_hist_seqr::gmean    38.541742                       (Unspecified)
board.cache_hierarchy.ruby_system.RequestType.Locked_RMW_Read.latency_hist_seqr::stdev     8.701496                       (Unspecified)
board.cache_hierarchy.ruby_system.RequestType.Locked_RMW_Read.latency_hist_seqr |         573      1.73%      1.73% |           1      0.00%      1.73% |          13      0.04%      1.77% |          42      0.13%      1.90% |       11790     35.56%     37.46% |       17497     52.78%     90.24% |        3143      9.48%     99.72% |          88      0.27%     99.98% |           3      0.01%     99.99% |           2      0.01%    100.00% (Unspecified)
board.cache_hierarchy.ruby_system.RequestType.Locked_RMW_Read.latency_hist_seqr::total        33152                       (Unspecified)
board.cache_hierarchy.ruby_system.RequestType.Locked_RMW_Read.hit_latency_hist_seqr::bucket_size            1                       (Unspecified)
board.cache_hierarchy.ruby_system.RequestType.Locked_RMW_Read.hit_latency_hist_seqr::max_bucket            9                       (Unspecified)
board.cache_hierarchy.ruby_system.RequestType.Locked_RMW_Read.hit_latency_hist_seqr::samples          573                       (Unspecified)
board.cache_hierarchy.ruby_system.RequestType.Locked_RMW_Read.hit_latency_hist_seqr::mean            1                       (Unspecified)
board.cache_hierarchy.ruby_system.RequestType.Locked_RMW_Read.hit_latency_hist_seqr::gmean            1                       (Unspecified)
board.cache_hierarchy.ruby_system.RequestType.Locked_RMW_Read.hit_latency_hist_seqr |           0      0.00%      0.00% |         573    100.00%    100.00% |           0      0.00%    100.00% |           0      0.00%    100.00% |           0      0.00%    100.00% |           0      0.00%    100.00% |           0      0.00%    100.00% |           0      0.00%    100.00% |           0      0.00%    100.00% |           0      0.00%    100.00% (Unspecified)
board.cache_hierarchy.ruby_system.RequestType.Locked_RMW_Read.hit_latency_hist_seqr::total          573                       (Unspecified)
board.cache_hierarchy.ruby_system.RequestType.Locked_RMW_Read.miss_latency_hist_seqr::bucket_size            8                       (Unspecified)
board.cache_hierarchy.ruby_system.RequestType.Locked_RMW_Read.miss_latency_hist_seqr::max_bucket           79                       (Unspecified)
board.cache_hierarchy.ruby_system.RequestType.Locked_RMW_Read.miss_latency_hist_seqr::samples        32579                       (Unspecified)
board.cache_hierarchy.ruby_system.RequestType.Locked_RMW_Read.miss_latency_hist_seqr::mean    41.712576                       (Unspecified)
board.cache_hierarchy.ruby_system.RequestType.Locked_RMW_Read.miss_latency_hist_seqr::gmean    41.098383                       (Unspecified)
board.cache_hierarchy.ruby_system.RequestType.Locked_RMW_Read.miss_latency_hist_seqr::stdev     6.956895                       (Unspecified)
board.cache_hierarchy.ruby_system.RequestType.Locked_RMW_Read.miss_latency_hist_seqr |           0      0.00%      0.00% |           1      0.00%      0.00% |          13      0.04%      0.04% |          42      0.13%      0.17% |       11790     36.19%     36.36% |       17497     53.71%     90.07% |        3143      9.65%     99.71% |          88      0.27%     99.98% |           3      0.01%     99.99% |           2      0.01%    100.00% (Unspecified)
board.cache_hierarchy.ruby_system.RequestType.Locked_RMW_Read.miss_latency_hist_seqr::total        32579                       (Unspecified)
board.cache_hierarchy.ruby_system.RequestType.Locked_RMW_Write.latency_hist_seqr::bucket_size            1                       (Unspecified)
board.cache_hierarchy.ruby_system.RequestType.Locked_RMW_Write.latency_hist_seqr::max_bucket            9                       (Unspecified)
board.cache_hierarchy.ruby_system.RequestType.Locked_RMW_Write.latency_hist_seqr::samples        33152                       (Unspecified)
board.cache_hierarchy.ruby_system.RequestType.Locked_RMW_Write.latency_hist_seqr::mean            1                       (Unspecified)
board.cache_hierarchy.ruby_system.RequestType.Locked_RMW_Write.latency_hist_seqr::gmean            1                       (Unspecified)
board.cache_hierarchy.ruby_system.RequestType.Locked_RMW_Write.latency_hist_seqr |           0      0.00%      0.00% |       33152    100.00%    100.00% |           0      0.00%    100.00% |           0      0.00%    100.00% |           0      0.00%    100.00% |           0      0.00%    100.00% |           0      0.00%    100.00% |           0      0.00%    100.00% |           0      0.00%    100.00% |           0      0.00%    100.00% (Unspecified)
board.cache_hierarchy.ruby_system.RequestType.Locked_RMW_Write.latency_hist_seqr::total        33152                       (Unspecified)
board.cache_hierarchy.ruby_system.RequestType.Locked_RMW_Write.hit_latency_hist_seqr::bucket_size            1                       (Unspecified)
board.cache_hierarchy.ruby_system.RequestType.Locked_RMW_Write.hit_latency_hist_seqr::max_bucket            9                       (Unspecified)
board.cache_hierarchy.ruby_system.RequestType.Locked_RMW_Write.hit_latency_hist_seqr::samples        33152                       (Unspecified)
board.cache_hierarchy.ruby_system.RequestType.Locked_RMW_Write.hit_latency_hist_seqr::mean            1                       (Unspecified)
board.cache_hierarchy.ruby_system.RequestType.Locked_RMW_Write.hit_latency_hist_seqr::gmean            1                       (Unspecified)
board.cache_hierarchy.ruby_system.RequestType.Locked_RMW_Write.hit_latency_hist_seqr |           0      0.00%      0.00% |       33152    100.00%    100.00% |           0      0.00%    100.00% |           0      0.00%    100.00% |           0      0.00%    100.00% |           0      0.00%    100.00% |           0      0.00%    100.00% |           0      0.00%    100.00% |           0      0.00%    100.00% |           0      0.00%    100.00% (Unspecified)
board.cache_hierarchy.ruby_system.RequestType.Locked_RMW_Write.hit_latency_hist_seqr::total        33152                       (Unspecified)
board.cache_hierarchy.ruby_system.directory_controllers.power_state.pwrStateResidencyTicks::UNDEFINED    557712000                       # Cumulative time (in ticks) in various power states (Tick)
board.cache_hierarchy.ruby_system.directory_controllers.requestToDir.m_msg_count          819                       # Number of messages passed the buffer (Count)
board.cache_hierarchy.ruby_system.directory_controllers.requestToDir.m_buf_msgs     0.001406                       # Average number of messages in buffer ((Count/Tick))
board.cache_hierarchy.ruby_system.directory_controllers.requestToMemory.m_msg_count          819                       # Number of messages passed the buffer (Count)
board.cache_hierarchy.ruby_system.directory_controllers.requestToMemory.m_buf_msgs     0.001415                       # Average number of messages in buffer ((Count/Tick))
board.cache_hierarchy.ruby_system.directory_controllers.requestToMemory.m_stall_time         2500                       # Total number of ticks messages were stalled in this buffer (Tick)
board.cache_hierarchy.ruby_system.directory_controllers.requestToMemory.m_avg_stall_time     3.052503                       # Average stall ticks per message ((Tick/Count))
board.cache_hierarchy.ruby_system.directory_controllers.responseFromDir.m_msg_count          819                       # Number of messages passed the buffer (Count)
board.cache_hierarchy.ruby_system.directory_controllers.responseFromDir.m_buf_msgs     0.001406                       # Average number of messages in buffer ((Count/Tick))
board.cache_hierarchy.ruby_system.directory_controllers.responseFromMemory.m_msg_count          819                       # Number of messages passed the buffer (Count)
board.cache_hierarchy.ruby_system.directory_controllers.responseFromMemory.m_buf_msgs     0.001600                       # Average number of messages in buffer ((Count/Tick))
board.cache_hierarchy.ruby_system.l1_controllers0.fullyBusyCycles          222                       # cycles for which number of transistions == max transitions (Unspecified)
board.cache_hierarchy.ruby_system.l1_controllers0.delayHistogram::samples         1318                       # delay_histogram (Unspecified)
board.cache_hierarchy.ruby_system.l1_controllers0.delayHistogram::mean     0.165402                       # delay_histogram (Unspecified)
board.cache_hierarchy.ruby_system.l1_controllers0.delayHistogram::stdev     1.051427                       # delay_histogram (Unspecified)
board.cache_hierarchy.ruby_system.l1_controllers0.delayHistogram::0-1         1277     96.89%     96.89% # delay_histogram (Unspecified)
board.cache_hierarchy.ruby_system.l1_controllers0.delayHistogram::2-3            8      0.61%     97.50% # delay_histogram (Unspecified)
board.cache_hierarchy.ruby_system.l1_controllers0.delayHistogram::4-5           13      0.99%     98.48% # delay_histogram (Unspecified)
board.cache_hierarchy.ruby_system.l1_controllers0.delayHistogram::6-7           12      0.91%     99.39% # delay_histogram (Unspecified)
board.cache_hierarchy.ruby_system.l1_controllers0.delayHistogram::8-9            5      0.38%     99.77% # delay_histogram (Unspecified)
board.cache_hierarchy.ruby_system.l1_controllers0.delayHistogram::10-11            1      0.08%     99.85% # delay_histogram (Unspecified)
[...]
board.processor.cores8.core.decode.idleCycles        46232                       # Number of cycles decode is idle (Cycle)
board.processor.cores8.core.decode.blockedCycles       370873                       # Number of cycles decode is blocked (Cycle)
board.processor.cores8.core.decode.runCycles        66821                       # Number of cycles decode is running (Cycle)
board.processor.cores8.core.decode.unblockCycles        20583                       # Number of cycles decode is unblocking (Cycle)
board.processor.cores8.core.decode.squashCycles         4219                       # Number of cycles decode is squashing (Cycle)
board.processor.cores8.core.decode.branchResolved        25039                       # Number of times decode resolved a branch (Count)
board.processor.cores8.core.decode.branchMispred          113                       # Number of times decode detected a branch misprediction (Count)
board.processor.cores8.core.decode.decodedInsts       614595                       # Number of instructions handled by decode (Count)
board.processor.cores8.core.decode.squashedInsts          564                       # Number of squashed instructions handled by decode (Count)
board.processor.cores8.core.executeStats0.numInsts       366701                       # Number of executed instructions (Count)
board.processor.cores8.core.executeStats0.numNop            0                       # Number of nop insts executed (Count)
board.processor.cores8.core.executeStats0.numBranches        25249                       # Number of branches executed (Count)
board.processor.cores8.core.executeStats0.numLoadInsts        90927                       # Number of load instructions executed (Count)
board.processor.cores8.core.executeStats0.numStoreInsts        33354                       # Number of stores executed (Count)
board.processor.cores8.core.executeStats0.instRate     0.720600                       # Inst execution rate ((Count/Cycle))
board.processor.cores8.core.executeStats0.numCCRegReads        43317                       # Number of times the CC registers were read (Count)
board.processor.cores8.core.executeStats0.numCCRegWrites        75085                       # Number of times the CC registers were written (Count)
board.processor.cores8.core.executeStats0.numFpRegReads           21                       # Number of times the floating registers were read (Count)
board.processor.cores8.core.executeStats0.numFpRegWrites           12                       # Number of times the floating registers were written (Count)
board.processor.cores8.core.executeStats0.numIntRegReads       477964                       # Number of times the integer registers were read (Count)
board.processor.cores8.core.executeStats0.numIntRegWrites       278781                       # Number of times the integer registers were written (Count)
board.processor.cores8.core.executeStats0.numMemRefs       124281                       # Number of memory refs (Count)
board.processor.cores8.core.executeStats0.numMiscRegReads       174795                       # Number of times the Misc registers were read (Count)
board.processor.cores8.core.executeStats0.numMiscRegWrites            1                       # Number of times the Misc registers were written (Count)
board.processor.cores8.core.executeStats0.numVecAluAccesses            0                       # Number of vector alu accesses (Count)
board.processor.cores8.core.executeStats0.numDiscardedOps            0                       # Number of ops (including micro ops) which were discarded before commit (Count)
board.processor.cores8.core.fetch.predictedBranches        45625                       # Number of branches that fetch has predicted taken (Count)
board.processor.cores8.core.fetch.cycles       423079                       # Number of cycles fetch has run and was not squashing or blocked (Cycle)
board.processor.cores8.core.fetch.squashCycles         8660                       # Number of cycles fetch has spent squashing (Cycle)
board.processor.cores8.core.fetch.miscStallCycles           24                       # Number of cycles fetch has spent waiting on interrupts, or bad addresses, or out of MSHRs (Cycle)
board.processor.cores8.core.fetch.pendingTrapStallCycles          138                       # Number of stall cycles due to pending traps (Cycle)
board.processor.cores8.core.fetch.icacheWaitRetryStallCycles            1                       # Number of stall cycles due to full MSHR (Cycle)
board.processor.cores8.core.fetch.cacheLines        78657                       # Number of cache lines fetched (Count)
board.processor.cores8.core.fetch.icacheSquashes         4193                       # Number of outstanding Icache misses that were squashed (Count)
board.processor.cores8.core.fetch.nisnDist::samples       508728                       # Number of instructions fetched each cycle (Total) (Count)
board.processor.cores8.core.fetch.nisnDist::mean     1.444866                       # Number of instructions fetched each cycle (Total) (Count)
board.processor.cores8.core.fetch.nisnDist::stdev     2.802267                       # Number of instructions fetched each cycle (Total) (Count)
board.processor.cores8.core.fetch.nisnDist::underflows            0      0.00%      0.00% # Number of instructions fetched each cycle (Total) (Count)
board.processor.cores8.core.fetch.nisnDist::0       388398     76.35%     76.35% # Number of instructions fetched each cycle (Total) (Count)
board.processor.cores8.core.fetch.nisnDist::1         4161      0.82%     77.16% # Number of instructions fetched each cycle (Total) (Count)
board.processor.cores8.core.fetch.nisnDist::2        12337      2.43%     79.59% # Number of instructions fetched each cycle (Total) (Count)
board.processor.cores8.core.fetch.nisnDist::3           71      0.01%     79.60% # Number of instructions fetched each cycle (Total) (Count)
board.processor.cores8.core.fetch.nisnDist::4        12386      2.43%     82.04% # Number of instructions fetched each cycle (Total) (Count)
board.processor.cores8.core.fetch.nisnDist::5         8335      1.64%     83.68% # Number of instructions fetched each cycle (Total) (Count)
board.processor.cores8.core.fetch.nisnDist::6        12403      2.44%     86.11% # Number of instructions fetched each cycle (Total) (Count)
board.processor.cores8.core.fetch.nisnDist::7        24737      4.86%     90.98% # Number of instructions fetched each cycle (Total) (Count)
board.processor.cores8.core.fetch.nisnDist::8        45900      9.02%    100.00% # Number of instructions fetched each cycle (Total) (Count)
board.processor.cores8.core.fetch.nisnDist::overflows            0      0.00%    100.00% # Number of instructions fetched each cycle (Total) (Count)
board.processor.cores8.core.fetch.nisnDist::min_value            0                       # Number of instructions fetched each cycle (Total) (Count)
board.processor.cores8.core.fetch.nisnDist::max_value            8                       # Number of instructions fetched each cycle (Total) (Count)
board.processor.cores8.core.fetch.nisnDist::total       508728                       # Number of instructions fetched each cycle (Total) (Count)
board.processor.cores8.core.fetchStats0.numInsts       492381                       # Number of instructions fetched (thread level) (Count)
board.processor.cores8.core.fetchStats0.numOps            0                       # Number of ops (including micro ops) fetched (thread level) (Count)
board.processor.cores8.core.fetchStats0.fetchRate     0.967572                       # Number of inst fetches per cycle ((Count/Cycle))
board.processor.cores8.core.fetchStats0.numBranches        46222                       # Number of branches fetched (Count)
board.processor.cores8.core.fetchStats0.branchRate     0.090830                       # Number of branch fetches per cycle (Ratio)
board.processor.cores8.core.fetchStats0.icacheStallCycles        81156                       # ICache total stall cycles (Cycle)
board.processor.cores8.core.fetchStats0.numFetchSuspends            0                       # Number of times Execute suspended instruction fetching (Count)
board.processor.cores8.core.iew.idleCycles            0                       # Number of cycles IEW is idle (Cycle)
board.processor.cores8.core.iew.squashCycles         4219                       # Number of cycles IEW is squashing (Cycle)
board.processor.cores8.core.iew.blockCycles       286238                       # Number of cycles IEW is blocking (Cycle)
board.processor.cores8.core.iew.unblockCycles         8214                       # Number of cycles IEW is unblocking (Cycle)
board.processor.cores8.core.iew.dispatchedInsts       548326                       # Number of instructions dispatched to IQ (Count)
board.processor.cores8.core.iew.dispSquashedInsts           24                       # Number of squashed instructions skipped by dispatch (Count)
board.processor.cores8.core.iew.dispLoadInsts       144431                       # Number of dispatched load instructions (Count)
board.processor.cores8.core.iew.dispStoreInsts        66258                       # Number of dispatched store instructions (Count)
board.processor.cores8.core.iew.dispNonSpecInsts         8226                       # Number of dispatched non-speculative instructions (Count)
board.processor.cores8.core.iew.iqFullEvents         6160                       # Number of times the IQ has become full, causing a stall (Count)
board.processor.cores8.core.iew.lsqFullEvents            1                       # Number of times the LSQ has become full, causing a stall (Count)
board.processor.cores8.core.iew.memOrderViolationEvents         4105                       # Number of memory order violations (Count)
board.processor.cores8.core.iew.predictedTakenIncorrect            6                       # Number of branches that were predicted taken incorrectly (Count)
board.processor.cores8.core.iew.predictedNotTakenIncorrect          111                       # Number of branches that were predicted not taken incorrectly (Count)
board.processor.cores8.core.iew.branchMispredicts          117                       # Number of branch mispredicts detected at execute (Count)
board.processor.cores8.core.iew.instsToCommit       366649                       # Cumulative count of insts sent to commit (Count)
board.processor.cores8.core.iew.writebackCount       366547                       # Cumulative count of insts written-back (Count)
board.processor.cores8.core.iew.producerInst       266188                       # Number of instructions producing a value (Count)
board.processor.cores8.core.iew.consumerInst       469162                       # Number of instructions consuming a value (Count)
board.processor.cores8.core.iew.wbRate       0.720297                       # Insts written-back per cycle ((Count/Cycle))
board.processor.cores8.core.iew.wbFanout     0.567369                       # Average fanout of values written-back ((Count/Count))
board.processor.cores8.core.interrupts.clk_domain.clock         8000                       # Clock period in ticks (Tick)
board.processor.cores8.core.lsq0.forwLoads         8383                       # Number of loads that had data forwarded from stores (Count)
board.processor.cores8.core.lsq0.squashedLoads        86521                       # Number of loads squashed (Count)
board.processor.cores8.core.lsq0.ignoredResponses            0                       # Number of memory responses ignored because the instruction is squashed (Count)
board.processor.cores8.core.lsq0.memOrderViolation         4105                       # Number of memory ordering violations (Count)
board.processor.cores8.core.lsq0.squashedStores        41242                       # Number of stores squashed (Count)
board.processor.cores8.core.lsq0.rescheduledLoads            0                       # Number of loads that were rescheduled (Count)
board.processor.cores8.core.lsq0.blockedByCache            1                       # Number of times an access to memory failed due to the cache being blocked (Count)
board.processor.cores8.core.lsq0.loadToUse::samples        57910                       # Distribution of cycle latency between the first time a load is issued and its completion (Unspecified)
board.processor.cores8.core.lsq0.loadToUse::mean     6.402694                       # Distribution of cycle latency between the first time a load is issued and its completion (Unspecified)
board.processor.cores8.core.lsq0.loadToUse::stdev    10.778053                       # Distribution of cycle latency between the first time a load is issued and its completion (Unspecified)
board.processor.cores8.core.lsq0.loadToUse::0-9        51744     89.35%     89.35% # Distribution of cycle latency between the first time a load is issued and its completion (Unspecified)
board.processor.cores8.core.lsq0.loadToUse::10-19          264      0.46%     89.81% # Distribution of cycle latency between the first time a load is issued and its completion (Unspecified)
board.processor.cores8.core.lsq0.loadToUse::20-29         1828      3.16%     92.96% # Distribution of cycle latency between the first time a load is issued and its completion (Unspecified)
board.processor.cores8.core.lsq0.loadToUse::30-39         1830      3.16%     96.13% # Distribution of cycle latency between the first time a load is issued and its completion (Unspecified)
board.processor.cores8.core.lsq0.loadToUse::40-49         1998      3.45%     99.58% # Distribution of cycle latency between the first time a load is issued and its completion (Unspecified)
board.processor.cores8.core.lsq0.loadToUse::50-59          242      0.42%     99.99% # Distribution of cycle latency between the first time a load is issued and its completion (Unspecified)
board.processor.cores8.core.lsq0.loadToUse::90-99            1      0.00%     99.99% # Distribution of cycle latency between the first time a load is issued and its completion (Unspecified)
board.processor.cores8.core.lsq0.loadToUse::100-109            2      0.00%    100.00% # Distribution of cycle latency between the first time a load is issued and its completion (Unspecified)
board.processor.cores8.core.lsq0.loadToUse::130-139            1      0.00%    100.00% # Distribution of cycle latency between the first time a load is issued and its completion (Unspecified)
board.processor.cores8.core.lsq0.loadToUse::min_value            2                       # Distribution of cycle latency between the first time a load is issued and its completion (Unspecified)
board.processor.cores8.core.lsq0.loadToUse::max_value          139                       # Distribution of cycle latency between the first time a load is issued and its completion (Unspecified)
board.processor.cores8.core.lsq0.loadToUse::total        57910                       # Distribution of cycle latency between the first time a load is issued and its completion (Unspecified)
board.processor.cores8.core.mmu.dtb.rdAccesses        90924                       # TLB accesses on read requests (Count)
board.processor.cores8.core.mmu.dtb.wrAccesses        33354                       # TLB accesses on write requests (Count)
board.processor.cores8.core.mmu.dtb.rdMisses          100                       # TLB misses on read requests (Count)
board.processor.cores8.core.mmu.dtb.wrMisses           11                       # TLB misses on write requests (Count)
board.processor.cores8.core.mmu.dtb.walker.power_state.pwrStateResidencyTicks::UNDEFINED    557712000                       # Cumulative time (in ticks) in various power states (Tick)
board.processor.cores8.core.mmu.itb.rdAccesses            0                       # TLB accesses on read requests (Count)
board.processor.cores8.core.mmu.itb.wrAccesses        78681                       # TLB accesses on write requests (Count)
board.processor.cores8.core.mmu.itb.rdMisses            0                       # TLB misses on read requests (Count)
board.processor.cores8.core.mmu.itb.wrMisses           76                       # TLB misses on write requests (Count)
board.processor.cores8.core.mmu.itb.walker.power_state.pwrStateResidencyTicks::UNDEFINED    557712000                       # Cumulative time (in ticks) in various power states (Tick)
board.processor.cores8.core.power_state.pwrStateResidencyTicks::ON    557712000                       # Cumulative time (in ticks) in various power states (Tick)
board.processor.cores8.core.rename.squashCycles         4219                       # Number of cycles rename is squashing (Cycle)
board.processor.cores8.core.rename.idleCycles        52529                       # Number of cycles rename is idle (Cycle)
board.processor.cores8.core.rename.blockCycles       339569                       # Number of cycles rename is blocking (Cycle)
board.processor.cores8.core.rename.serializeStallCycles            0                       # count of cycles rename stalled for serializing inst (Cycle)
board.processor.cores8.core.rename.runCycles        74952                       # Number of cycles rename is running (Cycle)
board.processor.cores8.core.rename.unblockCycles        37459                       # Number of cycles rename is unblocking (Cycle)
board.processor.cores8.core.rename.renamedInsts       581556                       # Number of instructions processed by rename (Count)
board.processor.cores8.core.rename.IQFullEvents        28797                       # Number of times rename has blocked due to IQ full (Count)
board.processor.cores8.core.rename.LQFullEvents           63                       # Number of times rename has blocked due to LQ full (Count)
board.processor.cores8.core.rename.SQFullEvents          394                       # Number of times rename has blocked due to SQ full (Count)
board.processor.cores8.core.rename.renamedOperands       773351                       # Number of destination operands rename has renamed (Count)
board.processor.cores8.core.rename.lookups      1765088                       # Number of register rename lookups that rename has made (Count)
board.processor.cores8.core.rename.intLookups       829052                       # Number of integer rename lookups (Count)
board.processor.cores8.core.rename.fpLookups           21                       # Number of floating rename lookups (Count)
board.processor.cores8.core.rename.committedMaps       288459                       # Number of HB maps that are committed (Count)
board.processor.cores8.core.rename.undoneMaps       484892                       # Number of HB maps that are undone due to squashing (Count)
board.processor.cores8.core.rename.serializing            0                       # count of serializing insts renamed (Count)
board.processor.cores8.core.rename.tempSerializing            0                       # count of temporary serializing insts renamed (Count)
board.processor.cores8.core.rename.skidInsts       102892                       # count of insts added to the skid buffer (Count)
board.processor.cores8.core.rob.reads         1007018                       # The number of ROB reads (Count)
board.processor.cores8.core.rob.writes        1141839                       # The number of ROB writes (Count)
board.processor.cores8.core.thread_0.numInsts       141208                       # Number of Instructions committed (Count)
board.processor.cores8.core.thread_0.numOps       213023                       # Number of Ops committed (Count)
board.processor.cores8.core.thread_0.numMemRefs            0                       # Number of Memory References (Count)
board.workload.inst.arm                             0                       # number of arm instructions executed (Count)
board.workload.inst.quiesce                         0                       # number of quiesce instructions executed (Count)

---------- End Simulation Statistics   ----------
