
---------- Begin Simulation Statistics ----------
simSeconds                                   0.000414                       # Number of seconds simulated (Second)
simTicks                                    413760500                       # Number of ticks simulated (Tick)
finalTick                                   685757500                       # Number of ticks from beginning of simulation (restored from checkpoints and never reset) (Tick)
simFreq                                  1000000000000                       # The number of ticks per simulated second ((Tick/Second))
hostSeconds                                     34.21                       # Real time elapsed on the host (Second)
hostTickRate                                 12096362                       # The number of ticks simulated per host second (ticks/s) ((Tick/Second))
hostMemory                                    1749124                       # Number of bytes of host memory used (Byte)
simInsts                                      1762608                       # Number of instructions simulated (Count)
simOps                                        2986933                       # Number of ops (including micro ops) simulated (Count)
hostInstRate                                    51530                       # Simulator instruction rate (inst/s) ((Count/Second))
hostOpRate                                      87323                       # Simulator op (including micro ops) rate (op/s) ((Count/Second))
board.cache_hierarchy.ruby_system.delayHistogram::bucket_size          128                       # delay histogram for all message (Unspecified)
board.cache_hierarchy.ruby_system.delayHistogram::max_bucket         1279                       # delay histogram for all message (Unspecified)
board.cache_hierarchy.ruby_system.delayHistogram::samples       151902                       # delay histogram for all message (Unspecified)
board.cache_hierarchy.ruby_system.delayHistogram::mean   172.825986                       # delay histogram for all message (Unspecified)
board.cache_hierarchy.ruby_system.delayHistogram::stdev   412.407039                       # delay histogram for all message (Unspecified)
board.cache_hierarchy.ruby_system.delayHistogram |      128325     84.48%     84.48% |         777      0.51%     84.99% |         516      0.34%     85.33% |          52      0.03%     85.36% |         511      0.34%     85.70% |         562      0.37%     86.07% |          72      0.05%     86.12% |        1136      0.75%     86.87% |        1039      0.68%     87.55% |       18912     12.45%    100.00% # delay histogram for all message (Unspecified)
board.cache_hierarchy.ruby_system.delayHistogram::total       151902                       # delay histogram for all message (Unspecified)
board.cache_hierarchy.ruby_system.m_outstandReqHistSeqr::bucket_size            2                       (Unspecified)
board.cache_hierarchy.ruby_system.m_outstandReqHistSeqr::max_bucket           19                       (Unspecified)
board.cache_hierarchy.ruby_system.m_outstandReqHistSeqr::samples      1202066                       (Unspecified)
board.cache_hierarchy.ruby_system.m_outstandReqHistSeqr::mean     1.184210                       (Unspecified)
board.cache_hierarchy.ruby_system.m_outstandReqHistSeqr::gmean     1.123130                       (Unspecified)
board.cache_hierarchy.ruby_system.m_outstandReqHistSeqr::stdev     0.489067                       (Unspecified)
board.cache_hierarchy.ruby_system.m_outstandReqHistSeqr |     1026784     85.42%     85.42% |      172810     14.38%     99.79% |        2166      0.18%     99.97% |         208      0.02%     99.99% |          61      0.01%    100.00% |          27      0.00%    100.00% |           6      0.00%    100.00% |           3      0.00%    100.00% |           1      0.00%    100.00% |           0      0.00%    100.00% (Unspecified)
board.cache_hierarchy.ruby_system.m_outstandReqHistSeqr::total      1202066                       (Unspecified)
board.cache_hierarchy.ruby_system.m_latencyHistSeqr::bucket_size          128                       (Unspecified)
board.cache_hierarchy.ruby_system.m_latencyHistSeqr::max_bucket         1279                       (Unspecified)
board.cache_hierarchy.ruby_system.m_latencyHistSeqr::samples      1202310                       (Unspecified)
board.cache_hierarchy.ruby_system.m_latencyHistSeqr::mean     6.855828                       (Unspecified)
board.cache_hierarchy.ruby_system.m_latencyHistSeqr::gmean     1.170860                       (Unspecified)
board.cache_hierarchy.ruby_system.m_latencyHistSeqr::stdev    38.290904                       (Unspecified)
board.cache_hierarchy.ruby_system.m_latencyHistSeqr |     1178894     98.05%     98.05% |        2320      0.19%     98.25% |       21085      1.75%    100.00% |           1      0.00%    100.00% |           0      0.00%    100.00% |           6      0.00%    100.00% |           4      0.00%    100.00% |           0      0.00%    100.00% |           0      0.00%    100.00% |           0      0.00%    100.00% (Unspecified)
board.cache_hierarchy.ruby_system.m_latencyHistSeqr::total      1202310                       (Unspecified)
board.cache_hierarchy.ruby_system.m_hitLatencyHistSeqr::bucket_size           16                       (Unspecified)
board.cache_hierarchy.ruby_system.m_hitLatencyHistSeqr::max_bucket          159                       (Unspecified)
board.cache_hierarchy.ruby_system.m_hitLatencyHistSeqr::samples      1162689                       (Unspecified)
board.cache_hierarchy.ruby_system.m_hitLatencyHistSeqr::mean     1.000571                       (Unspecified)
board.cache_hierarchy.ruby_system.m_hitLatencyHistSeqr::gmean     1.000168                       (Unspecified)
board.cache_hierarchy.ruby_system.m_hitLatencyHistSeqr::stdev     0.191920                       (Unspecified)
board.cache_hierarchy.ruby_system.m_hitLatencyHistSeqr |     1162685    100.00%    100.00% |           0      0.00%    100.00% |           0      0.00%    100.00% |           0      0.00%    100.00% |           0      0.00%    100.00% |           2      0.00%    100.00% |           1      0.00%    100.00% |           1      0.00%    100.00% |           0      0.00%    100.00% |           0      0.00%    100.00% (Unspecified)
board.cache_hierarchy.ruby_system.m_hitLatencyHistSeqr::total      1162689                       (Unspecified)
board.cache_hierarchy.ruby_system.m_missLatencyHistSeqr::bucket_size          128                       (Unspecified)
board.cache_hierarchy.ruby_system.m_missLatencyHistSeqr::max_bucket         1279                       (Unspecified)
board.cache_hierarchy.ruby_system.m_missLatencyHistSeqr::samples        39621                       (Unspecified)
board.cache_hierarchy.ruby_system.m_missLatencyHistSeqr::mean   178.679942                       (Unspecified)
board.cache_hierarchy.ruby_system.m_missLatencyHistSeqr::gmean   119.306496                       (Unspecified)
board.cache_hierarchy.ruby_system.m_missLatencyHistSeqr::stdev   118.159507                       (Unspecified)
board.cache_hierarchy.ruby_system.m_missLatencyHistSeqr |       16205     40.90%     40.90% |        2320      5.86%     46.76% |       21085     53.22%     99.97% |           1      0.00%     99.97% |           0      0.00%     99.97% |           6      0.02%     99.99% |           4      0.01%    100.00% |           0      0.00%    100.00% |           0      0.00%    100.00% |           0      0.00%    100.00% (Unspecified)
board.cache_hierarchy.ruby_system.m_missLatencyHistSeqr::total        39621                       (Unspecified)
board.cache_hierarchy.ruby_system.delayVCHist.vnet_0::bucket_size          128                       # delay histogram for vnet_0 (Unspecified)
board.cache_hierarchy.ruby_system.delayVCHist.vnet_0::max_bucket         1279                       # delay histogram for vnet_0 (Unspecified)
board.cache_hierarchy.ruby_system.delayVCHist.vnet_0::samples        76262                       # delay histogram for vnet_0 (Unspecified)
board.cache_hierarchy.ruby_system.delayVCHist.vnet_0::mean   344.157575                       # delay histogram for vnet_0 (Unspecified)
board.cache_hierarchy.ruby_system.delayVCHist.vnet_0::stdev   528.982219                       # delay histogram for vnet_0 (Unspecified)
board.cache_hierarchy.ruby_system.delayVCHist.vnet_0 |       52685     69.08%     69.08% |         777      1.02%     70.10% |         516      0.68%     70.78% |          52      0.07%     70.85% |         511      0.67%     71.52% |         562      0.74%     72.25% |          72      0.09%     72.35% |        1136      1.49%     73.84% |        1039      1.36%     75.20% |       18912     24.80%    100.00% # delay histogram for vnet_0 (Unspecified)
board.cache_hierarchy.ruby_system.delayVCHist.vnet_0::total        76262                       # delay histogram for vnet_0 (Unspecified)
board.cache_hierarchy.ruby_system.delayVCHist.vnet_1::bucket_size            4                       # delay histogram for vnet_1 (Unspecified)
board.cache_hierarchy.ruby_system.delayVCHist.vnet_1::max_bucket           39                       # delay histogram for vnet_1 (Unspecified)
board.cache_hierarchy.ruby_system.delayVCHist.vnet_1::samples        41970                       # delay histogram for vnet_1 (Unspecified)
board.cache_hierarchy.ruby_system.delayVCHist.vnet_1::mean     0.153824                       # delay histogram for vnet_1 (Unspecified)
board.cache_hierarchy.ruby_system.delayVCHist.vnet_1::stdev     1.188383                       # delay histogram for vnet_1 (Unspecified)
board.cache_hierarchy.ruby_system.delayVCHist.vnet_1 |       41197     98.16%     98.16% |         307      0.73%     98.89% |         367      0.87%     99.76% |          40      0.10%     99.86% |          42      0.10%     99.96% |           6      0.01%     99.97% |          10      0.02%    100.00% |           0      0.00%    100.00% |           1      0.00%    100.00% |           0      0.00%    100.00% # delay histogram for vnet_1 (Unspecified)
board.cache_hierarchy.ruby_system.delayVCHist.vnet_1::total        41970                       # delay histogram for vnet_1 (Unspecified)
board.cache_hierarchy.ruby_system.delayVCHist.vnet_2::bucket_size            1                       # delay histogram for vnet_2 (Unspecified)
board.cache_hierarchy.ruby_system.delayVCHist.vnet_2::max_bucket            9                       # delay histogram for vnet_2 (Unspecified)
board.cache_hierarchy.ruby_system.delayVCHist.vnet_2::samples        33670                       # delay histogram for vnet_2 (Unspecified)
board.cache_hierarchy.ruby_system.delayVCHist.vnet_2::mean     0.000356                       # delay histogram for vnet_2 (Unspecified)
board.cache_hierarchy.ruby_system.delayVCHist.vnet_2::stdev     0.026696                       # delay histogram for vnet_2 (Unspecified)
board.cache_hierarchy.ruby_system.delayVCHist.vnet_2 |       33664     99.98%     99.98% |           0      0.00%     99.98% |           6      0.02%    100.00% |           0      0.00%    100.00% |           0      0.00%    100.00% |           0      0.00%    100.00% |           0      0.00%    100.00% |           0      0.00%    100.00% |           0      0.00%    100.00% |           0      0.00%    100.00% # delay histogram for vnet_2 (Unspecified)
board.cache_hierarchy.ruby_system.delayVCHist.vnet_2::total        33670                       # delay histogram for vnet_2 (Unspecified)
board.cache_hierarchy.ruby_system.Directory_Controller.Fetch         1100      0.00%      0.00% (Unspecified)
board.cache_hierarchy.ruby_system.Directory_Controller.Memory_Data         1100      0.00%      0.00% (Unspecified)
board.cache_hierarchy.ruby_system.Directory_Controller.I.Fetch         1100      0.00%      0.00% (Unspecified)
board.cache_hierarchy.ruby_system.Directory_Controller.IM.Memory_Data         1100      0.00%      0.00% (Unspecified)
board.cache_hierarchy.ruby_system.L1Cache_Controller.Load |       13391      3.50%      3.50% |       23144      6.04%      9.54% |       23094      6.03%     15.57% |       23095      6.03%     21.61% |       23089      6.03%     27.64% |       23088      6.03%     33.67% |       23087      6.03%     39.70% |       23086      6.03%     45.73% |       23082      6.03%     51.76% |       23084      6.03%     57.79% |       23089      6.03%     63.82% |       23091      6.03%     69.85% |       23090      6.03%     75.88% |       23083      6.03%     81.91% |       23082      6.03%     87.94% |       23088      6.03%     93.97% |       23103      6.03%    100.00% (Unspecified)
board.cache_hierarchy.ruby_system.L1Cache_Controller.Load::total       382866                       (Unspecified)
board.cache_hierarchy.ruby_system.L1Cache_Controller.Ifetch |       21568      4.09%      4.09% |       31531      5.99%     10.08% |       31655      6.01%     16.09% |       31576      5.99%     22.08% |       31565      5.99%     28.08% |       31564      5.99%     34.07% |       31556      5.99%     40.06% |       31555      5.99%     46.05% |       31559      5.99%     52.04% |       31560      5.99%     58.03% |       31560      5.99%     64.02% |       31563      5.99%     70.02% |       31569      5.99%     76.01% |       31565      5.99%     82.00% |       31571      5.99%     88.00% |       31575      5.99%     93.99% |       31661      6.01%    100.00% (Unspecified)
board.cache_hierarchy.ruby_system.L1Cache_Controller.Ifetch::total       526753                       (Unspecified)
board.cache_hierarchy.ruby_system.L1Cache_Controller.Store |       22354      7.64%      7.64% |       17133      5.85%     13.49% |       17136      5.85%     19.35% |       16841      5.75%     25.10% |       16841      5.75%     30.85% |       16841      5.75%     36.61% |       16841      5.75%     42.36% |       16841      5.75%     48.11% |       16841      5.75%     53.87% |       16841      5.75%     59.62% |       16841      5.75%     65.38% |       16841      5.75%     71.13% |       16841      5.75%     76.88% |       16841      5.75%     82.64% |       16841      5.75%     88.39% |       16841      5.75%     94.15% |       17135      5.85%    100.00% (Unspecified)
board.cache_hierarchy.ruby_system.L1Cache_Controller.Store::total       292691                       (Unspecified)
board.cache_hierarchy.ruby_system.L1Cache_Controller.Inv |          92     33.95%     33.95% |          14      5.17%     39.11% |          14      5.17%     44.28% |          13      4.80%     49.08% |          12      4.43%     53.51% |          10      3.69%     57.20% |          11      4.06%     61.25% |          10      3.69%     64.94% |          11      4.06%     69.00% |          11      4.06%     73.06% |          12      4.43%     77.49% |          13      4.80%     82.29% |          14      5.17%     87.45% |          14      5.17%     92.62% |          11      4.06%     96.68% |           6      2.21%     98.89% |           3      1.11%    100.00% (Unspecified)
board.cache_hierarchy.ruby_system.L1Cache_Controller.Inv::total          271                       (Unspecified)
board.cache_hierarchy.ruby_system.L1Cache_Controller.L1_Replacement |         855     99.30%     99.30% |           2      0.23%     99.54% |           2      0.23%     99.77% |           2      0.23%    100.00% |           0      0.00%    100.00% |           0      0.00%    100.00% |           0      0.00%    100.00% |           0      0.00%    100.00% |           0      0.00%    100.00% |           0      0.00%    100.00% |           0      0.00%    100.00% |           0      0.00%    100.00% |           0      0.00%    100.00% |           0      0.00%    100.00% |           0      0.00%    100.00% |           0      0.00%    100.00% |           0      0.00%    100.00% (Unspecified)
board.cache_hierarchy.ruby_system.L1Cache_Controller.L1_Replacement::total          861                       (Unspecified)
board.cache_hierarchy.ruby_system.L1Cache_Controller.Fwd_GETX |          44      0.13%      0.13% |        1997      6.09%      6.23% |        2063      6.29%     12.52% |        2061      6.29%     18.81% |        2008      6.13%     24.93% |        1985      6.06%     30.99% |        2059      6.28%     37.27% |        2061      6.29%     43.56% |        2061      6.29%     49.84% |        2061      6.29%     56.13% |        2061      6.29%     62.42% |        2061      6.29%     68.70% |        2061      6.29%     74.99% |        2062      6.29%     81.28% |        2049      6.25%     87.53% |        2050      6.25%     93.79% |        2037      6.21%    100.00% (Unspecified)
board.cache_hierarchy.ruby_system.L1Cache_Controller.Fwd_GETX::total        32781                       (Unspecified)
board.cache_hierarchy.ruby_system.L1Cache_Controller.Fwd_GETS |         413     66.83%     66.83% |          22      3.56%     70.39% |          14      2.27%     72.65% |          13      2.10%     74.76% |          15      2.43%     77.18% |          14      2.27%     79.45% |          13      2.10%     81.55% |          13      2.10%     83.66% |          13      2.10%     85.76% |          13      2.10%     87.86% |          13      2.10%     89.97% |          13      2.10%     92.07% |          14      2.27%     94.34% |          13      2.10%     96.44% |           9      1.46%     97.90% |           7      1.13%     99.03% |           6      0.97%    100.00% (Unspecified)
board.cache_hierarchy.ruby_system.L1Cache_Controller.Fwd_GETS::total          618                       (Unspecified)
board.cache_hierarchy.ruby_system.L1Cache_Controller.Data |           1     50.00%     50.00% |           0      0.00%     50.00% |           0      0.00%     50.00% |           0      0.00%     50.00% |           0      0.00%     50.00% |           0      0.00%     50.00% |           0      0.00%     50.00% |           0      0.00%     50.00% |           0      0.00%     50.00% |           0      0.00%     50.00% |           0      0.00%     50.00% |           0      0.00%     50.00% |           0      0.00%     50.00% |           0      0.00%     50.00% |           0      0.00%     50.00% |           0      0.00%     50.00% |           1     50.00%    100.00% (Unspecified)
board.cache_hierarchy.ruby_system.L1Cache_Controller.Data::total            2                       (Unspecified)
board.cache_hierarchy.ruby_system.L1Cache_Controller.Data_Exclusive |          72      3.70%      3.70% |         139      7.14%     10.84% |         132      6.78%     17.62% |         132      6.78%     24.40% |         133      6.83%     31.23% |         133      6.83%     38.06% |         133      6.83%     44.89% |         133      6.83%     51.72% |         133      6.83%     58.55% |         133      6.83%     65.38% |         133      6.83%     72.21% |         133      6.83%     79.04% |         133      6.83%     85.88% |         127      6.52%     92.40% |          73      3.75%     96.15% |          37      1.90%     98.05% |          38      1.95%    100.00% (Unspecified)
board.cache_hierarchy.ruby_system.L1Cache_Controller.Data_Exclusive::total         1947                       (Unspecified)
board.cache_hierarchy.ruby_system.L1Cache_Controller.DataS_fromL1 |          64     10.36%     10.36% |          22      3.56%     13.92% |          26      4.21%     18.12% |          21      3.40%     21.52% |          19      3.07%     24.60% |          19      3.07%     27.67% |          16      2.59%     30.26% |          17      2.75%     33.01% |          17      2.75%     35.76% |          17      2.75%     38.51% |          17      2.75%     41.26% |          18      2.91%     44.17% |          20      3.24%     47.41% |          24      3.88%     51.29% |          77     12.46%     63.75% |         113     18.28%     82.04% |         111     17.96%    100.00% (Unspecified)
board.cache_hierarchy.ruby_system.L1Cache_Controller.DataS_fromL1::total          618                       (Unspecified)
board.cache_hierarchy.ruby_system.L1Cache_Controller.Data_all_Acks |         763      2.07%      2.07% |        2235      6.07%      8.14% |        2308      6.27%     14.41% |        2259      6.13%     20.54% |        2203      5.98%     26.53% |        2179      5.92%     32.44% |        2257      6.13%     38.57% |        2258      6.13%     44.71% |        2258      6.13%     50.84% |        2258      6.13%     56.97% |        2258      6.13%     63.10% |        2257      6.13%     69.23% |        2256      6.13%     75.36% |        2258      6.13%     81.49% |        2260      6.14%     87.63% |        2257      6.13%     93.76% |        2299      6.24%    100.00% (Unspecified)
board.cache_hierarchy.ruby_system.L1Cache_Controller.Data_all_Acks::total        36823                       (Unspecified)
board.cache_hierarchy.ruby_system.L1Cache_Controller.Ack |          42     15.61%     15.61% |          11      4.09%     19.70% |          11      4.09%     23.79% |          15      5.58%     29.37% |          12      4.46%     33.83% |          12      4.46%     38.29% |          13      4.83%     43.12% |          13      4.83%     47.96% |          14      5.20%     53.16% |          13      4.83%     57.99% |          13      4.83%     62.83% |          14      5.20%     68.03% |          14      5.20%     73.23% |          14      5.20%     78.44% |          16      5.95%     84.39% |          16      5.95%     90.33% |          26      9.67%    100.00% (Unspecified)
board.cache_hierarchy.ruby_system.L1Cache_Controller.Ack::total          269                       (Unspecified)
board.cache_hierarchy.ruby_system.L1Cache_Controller.Ack_all |          38     16.31%     16.31% |          11      4.72%     21.03% |          11      4.72%     25.75% |          13      5.58%     31.33% |          12      5.15%     36.48% |          12      5.15%     41.63% |          12      5.15%     46.78% |          12      5.15%     51.93% |          13      5.58%     57.51% |          12      5.15%     62.66% |          12      5.15%     67.81% |          13      5.58%     73.39% |          14      6.01%     79.40% |          12      5.15%     84.55% |          12      5.15%     89.70% |          13      5.58%     95.28% |          11      4.72%    100.00% (Unspecified)
board.cache_hierarchy.ruby_system.L1Cache_Controller.Ack_all::total          233                       (Unspecified)
board.cache_hierarchy.ruby_system.L1Cache_Controller.WB_Ack |         360    100.00%    100.00% |           0      0.00%    100.00% |           0      0.00%    100.00% |           0      0.00%    100.00% |           0      0.00%    100.00% |           0      0.00%    100.00% |           0      0.00%    100.00% |           0      0.00%    100.00% |           0      0.00%    100.00% |           0      0.00%    100.00% |           0      0.00%    100.00% |           0      0.00%    100.00% |           0      0.00%    100.00% |           0      0.00%    100.00% |           0      0.00%    100.00% |           0      0.00%    100.00% |           0      0.00%    100.00% (Unspecified)
board.cache_hierarchy.ruby_system.L1Cache_Controller.WB_Ack::total          360                       (Unspecified)
board.cache_hierarchy.ruby_system.L1Cache_Controller.NP.Load |         131      4.79%      4.79% |         159      5.81%     10.60% |         160      5.85%     16.44% |         163      5.96%     22.40% |         164      5.99%     28.39% |         164      5.99%     34.38% |         164      5.99%     40.37% |         164      5.99%     46.36% |         164      5.99%     52.36% |         164      5.99%     58.35% |         164      5.99%     64.34% |         164      5.99%     70.33% |         164      5.99%     76.32% |         162      5.92%     82.24% |         163      5.96%     88.20% |         163      5.96%     94.15% |         160      5.85%    100.00% (Unspecified)
board.cache_hierarchy.ruby_system.L1Cache_Controller.NP.Load::total         2737                       (Unspecified)
board.cache_hierarchy.ruby_system.L1Cache_Controller.NP.Ifetch |         330     10.63%     10.63% |         190      6.12%     16.76% |         193      6.22%     22.98% |         172      5.54%     28.52% |         168      5.41%     33.93% |         168      5.41%     39.35% |         169      5.45%     44.80% |         169      5.45%     50.24% |         169      5.45%     55.69% |         169      5.45%     61.13% |         169      5.45%     66.58% |         169      5.45%     72.03% |         169      5.45%     77.47% |         169      5.45%     82.92% |         169      5.45%     88.37% |         169      5.45%     93.81% |         192      6.19%    100.00% (Unspecified)
board.cache_hierarchy.ruby_system.L1Cache_Controller.NP.Ifetch::total         3103                       (Unspecified)
board.cache_hierarchy.ruby_system.L1Cache_Controller.NP.Store |         394     42.73%     42.73% |          60      6.51%     49.24% |          60      6.51%     55.75% |          27      2.93%     58.68% |          27      2.93%     61.61% |          27      2.93%     64.53% |          27      2.93%     67.46% |          27      2.93%     70.39% |          27      2.93%     73.32% |          27      2.93%     76.25% |          27      2.93%     79.18% |          27      2.93%     82.10% |          27      2.93%     85.03% |          27      2.93%     87.96% |          26      2.82%     90.78% |          26      2.82%     93.60% |          59      6.40%    100.00% (Unspecified)
board.cache_hierarchy.ruby_system.L1Cache_Controller.NP.Store::total          922                       (Unspecified)
board.cache_hierarchy.ruby_system.L1Cache_Controller.NP.Inv |          12    100.00%    100.00% |           0      0.00%    100.00% |           0      0.00%    100.00% |           0      0.00%    100.00% |           0      0.00%    100.00% |           0      0.00%    100.00% |           0      0.00%    100.00% |           0      0.00%    100.00% |           0      0.00%    100.00% |           0      0.00%    100.00% |           0      0.00%    100.00% |           0      0.00%    100.00% |           0      0.00%    100.00% |           0      0.00%    100.00% |           0      0.00%    100.00% |           0      0.00%    100.00% |           0      0.00%    100.00% (Unspecified)
board.cache_hierarchy.ruby_system.L1Cache_Controller.NP.Inv::total           12                       (Unspecified)
board.cache_hierarchy.ruby_system.L1Cache_Controller.I.Load |          39     60.00%     60.00% |           3      4.62%     64.62% |           5      7.69%     72.31% |           3      4.62%     76.92% |           0      0.00%     76.92% |           0      0.00%     76.92% |           0      0.00%     76.92% |           0      0.00%     76.92% |           1      1.54%     78.46% |           0      0.00%     78.46% |           0      0.00%     78.46% |           1      1.54%     80.00% |           2      3.08%     83.08% |           3      4.62%     87.69% |           3      4.62%     92.31% |           2      3.08%     95.38% |           3      4.62%    100.00% (Unspecified)
board.cache_hierarchy.ruby_system.L1Cache_Controller.I.Load::total           65                       (Unspecified)
board.cache_hierarchy.ruby_system.L1Cache_Controller.I.Store |           6      0.02%      0.02% |        1984      6.09%      6.11% |        2048      6.29%     12.40% |        2047      6.29%     18.69% |        1996      6.13%     24.82% |        1972      6.06%     30.87% |        2046      6.28%     37.16% |        2048      6.29%     43.45% |        2047      6.29%     49.73% |        2048      6.29%     56.02% |        2048      6.29%     62.31% |        2047      6.29%     68.60% |        2047      6.29%     74.88% |        2048      6.29%     81.17% |        2048      6.29%     87.46% |        2047      6.29%     93.75% |        2035      6.25%    100.00% (Unspecified)
board.cache_hierarchy.ruby_system.L1Cache_Controller.I.Store::total        32562                       (Unspecified)
board.cache_hierarchy.ruby_system.L1Cache_Controller.I.L1_Replacement |          58    100.00%    100.00% |           0      0.00%    100.00% |           0      0.00%    100.00% |           0      0.00%    100.00% |           0      0.00%    100.00% |           0      0.00%    100.00% |           0      0.00%    100.00% |           0      0.00%    100.00% |           0      0.00%    100.00% |           0      0.00%    100.00% |           0      0.00%    100.00% |           0      0.00%    100.00% |           0      0.00%    100.00% |           0      0.00%    100.00% |           0      0.00%    100.00% |           0      0.00%    100.00% |           0      0.00%    100.00% (Unspecified)
board.cache_hierarchy.ruby_system.L1Cache_Controller.I.L1_Replacement::total           58                       (Unspecified)
board.cache_hierarchy.ruby_system.L1Cache_Controller.S.Load |         325      5.94%      5.94% |          82      1.50%      7.44% |          90      1.65%      9.09% |          97      1.77%     10.87% |          72      1.32%     12.18% |          80      1.46%     13.65% |          71      1.30%     14.94% |          75      1.37%     16.32% |          71      1.30%     17.61% |          72      1.32%     18.93% |          71      1.30%     20.23% |          71      1.30%     21.53% |          87      1.59%     23.12% |         176      3.22%     26.34% |         985     18.02%     44.36% |        1544     28.24%     72.60% |        1498     27.40%    100.00% (Unspecified)
board.cache_hierarchy.ruby_system.L1Cache_Controller.S.Load::total         5467                       (Unspecified)
board.cache_hierarchy.ruby_system.L1Cache_Controller.S.Ifetch |       21238      4.06%      4.06% |       31341      5.99%     10.04% |       31462      6.01%     16.05% |       31404      6.00%     22.05% |       31397      6.00%     28.04% |       31396      6.00%     34.04% |       31387      5.99%     40.03% |       31386      5.99%     46.03% |       31390      5.99%     52.02% |       31391      5.99%     58.01% |       31391      5.99%     64.01% |       31394      6.00%     70.00% |       31400      6.00%     76.00% |       31396      6.00%     82.00% |       31402      6.00%     87.99% |       31406      6.00%     93.99% |       31469      6.01%    100.00% (Unspecified)
board.cache_hierarchy.ruby_system.L1Cache_Controller.S.Ifetch::total       523650                       (Unspecified)
board.cache_hierarchy.ruby_system.L1Cache_Controller.S.Store |          37     15.95%     15.95% |          11      4.74%     20.69% |          11      4.74%     25.43% |          13      5.60%     31.03% |          12      5.17%     36.21% |          12      5.17%     41.38% |          12      5.17%     46.55% |          12      5.17%     51.72% |          13      5.60%     57.33% |          12      5.17%     62.50% |          12      5.17%     67.67% |          13      5.60%     73.28% |          14      6.03%     79.31% |          12      5.17%     84.48% |          13      5.60%     90.09% |          13      5.60%     95.69% |          10      4.31%    100.00% (Unspecified)
board.cache_hierarchy.ruby_system.L1Cache_Controller.S.Store::total          232                       (Unspecified)
board.cache_hierarchy.ruby_system.L1Cache_Controller.S.Inv |          80     31.01%     31.01% |          14      5.43%     36.43% |          14      5.43%     41.86% |          13      5.04%     46.90% |          12      4.65%     51.55% |          10      3.88%     55.43% |          11      4.26%     59.69% |          10      3.88%     63.57% |          11      4.26%     67.83% |          11      4.26%     72.09% |          12      4.65%     76.74% |          13      5.04%     81.78% |          14      5.43%     87.21% |          14      5.43%     92.64% |          10      3.88%     96.51% |           6      2.33%     98.84% |           3      1.16%    100.00% (Unspecified)
board.cache_hierarchy.ruby_system.L1Cache_Controller.S.Inv::total          258                       (Unspecified)
board.cache_hierarchy.ruby_system.L1Cache_Controller.S.L1_Replacement |         437     98.65%     98.65% |           2      0.45%     99.10% |           2      0.45%     99.55% |           2      0.45%    100.00% |           0      0.00%    100.00% |           0      0.00%    100.00% |           0      0.00%    100.00% |           0      0.00%    100.00% |           0      0.00%    100.00% |           0      0.00%    100.00% |           0      0.00%    100.00% |           0      0.00%    100.00% |           0      0.00%    100.00% |           0      0.00%    100.00% |           0      0.00%    100.00% |           0      0.00%    100.00% |           0      0.00%    100.00% (Unspecified)
board.cache_hierarchy.ruby_system.L1Cache_Controller.S.L1_Replacement::total          443                       (Unspecified)
board.cache_hierarchy.ruby_system.L1Cache_Controller.E.Load |        1702      5.97%      5.97% |        1923      6.75%     12.72% |        1916      6.72%     19.44% |        1916      6.72%     26.16% |        1916      6.72%     32.88% |        1916      6.72%     39.60% |        1916      6.72%     46.32% |        1916      6.72%     53.04% |        1916      6.72%     59.76% |        1916      6.72%     66.49% |        1916      6.72%     73.21% |        1916      6.72%     79.93% |        1916      6.72%     86.65% |        1826      6.41%     93.05% |        1020      3.58%     96.63% |         465      1.63%     98.26% |         495      1.74%    100.00% (Unspecified)
board.cache_hierarchy.ruby_system.L1Cache_Controller.E.Load::total        28507                       (Unspecified)
board.cache_hierarchy.ruby_system.L1Cache_Controller.E.Store |          20     86.96%     86.96% |           0      0.00%     86.96% |           0      0.00%     86.96% |           0      0.00%     86.96% |           0      0.00%     86.96% |           0      0.00%     86.96% |           0      0.00%     86.96% |           0      0.00%     86.96% |           0      0.00%     86.96% |           0      0.00%     86.96% |           0      0.00%     86.96% |           0      0.00%     86.96% |           0      0.00%     86.96% |           0      0.00%     86.96% |           1      4.35%     91.30% |           1      4.35%     95.65% |           1      4.35%    100.00% (Unspecified)
board.cache_hierarchy.ruby_system.L1Cache_Controller.E.Store::total           23                       (Unspecified)
board.cache_hierarchy.ruby_system.L1Cache_Controller.E.L1_Replacement |          12    100.00%    100.00% |           0      0.00%    100.00% |           0      0.00%    100.00% |           0      0.00%    100.00% |           0      0.00%    100.00% |           0      0.00%    100.00% |           0      0.00%    100.00% |           0      0.00%    100.00% |           0      0.00%    100.00% |           0      0.00%    100.00% |           0      0.00%    100.00% |           0      0.00%    100.00% |           0      0.00%    100.00% |           0      0.00%    100.00% |           0      0.00%    100.00% |           0      0.00%    100.00% |           0      0.00%    100.00% (Unspecified)
board.cache_hierarchy.ruby_system.L1Cache_Controller.E.L1_Replacement::total           12                       (Unspecified)
board.cache_hierarchy.ruby_system.L1Cache_Controller.E.Fwd_GETS |           7     15.56%     15.56% |           8     17.78%     33.33% |           2      4.44%     37.78% |           2      4.44%     42.22% |           3      6.67%     48.89% |           3      6.67%     55.56% |           2      4.44%     60.00% |           2      4.44%     64.44% |           2      4.44%     68.89% |           2      4.44%     73.33% |           2      4.44%     77.78% |           2      4.44%     82.22% |           2      4.44%     86.67% |           3      6.67%     93.33% |           1      2.22%     95.56% |           1      2.22%     97.78% |           1      2.22%    100.00% (Unspecified)
board.cache_hierarchy.ruby_system.L1Cache_Controller.E.Fwd_GETS::total           45                       (Unspecified)
board.cache_hierarchy.ruby_system.L1Cache_Controller.M.Load |       11194      3.23%      3.23% |       20977      6.06%      9.30% |       20923      6.05%     15.34% |       20916      6.04%     21.38% |       20937      6.05%     27.43% |       20928      6.05%     33.48% |       20936      6.05%     39.53% |       20931      6.05%     45.58% |       20930      6.05%     51.63% |       20932      6.05%     57.67% |       20938      6.05%     63.72% |       20939      6.05%     69.77% |       20921      6.04%     75.82% |       20916      6.04%     81.86% |       20911      6.04%     87.90% |       20914      6.04%     93.95% |       20947      6.05%    100.00% (Unspecified)
board.cache_hierarchy.ruby_system.L1Cache_Controller.M.Load::total       346090                       (Unspecified)
board.cache_hierarchy.ruby_system.L1Cache_Controller.M.Store |       21897      8.46%      8.46% |       15078      5.82%     14.28% |       15017      5.80%     20.08% |       14754      5.70%     25.78% |       14806      5.72%     31.49% |       14830      5.73%     37.22% |       14756      5.70%     42.92% |       14754      5.70%     48.62% |       14754      5.70%     54.31% |       14754      5.70%     60.01% |       14754      5.70%     65.71% |       14754      5.70%     71.41% |       14753      5.70%     77.10% |       14754      5.70%     82.80% |       14753      5.70%     88.50% |       14754      5.70%     94.20% |       15030      5.80%    100.00% (Unspecified)
board.cache_hierarchy.ruby_system.L1Cache_Controller.M.Store::total       258952                       (Unspecified)
board.cache_hierarchy.ruby_system.L1Cache_Controller.M.L1_Replacement |         348    100.00%    100.00% |           0      0.00%    100.00% |           0      0.00%    100.00% |           0      0.00%    100.00% |           0      0.00%    100.00% |           0      0.00%    100.00% |           0      0.00%    100.00% |           0      0.00%    100.00% |           0      0.00%    100.00% |           0      0.00%    100.00% |           0      0.00%    100.00% |           0      0.00%    100.00% |           0      0.00%    100.00% |           0      0.00%    100.00% |           0      0.00%    100.00% |           0      0.00%    100.00% |           0      0.00%    100.00% (Unspecified)
board.cache_hierarchy.ruby_system.L1Cache_Controller.M.L1_Replacement::total          348                       (Unspecified)
board.cache_hierarchy.ruby_system.L1Cache_Controller.M.Fwd_GETX |          44      0.13%      0.13% |        1997      6.09%      6.23% |        2063      6.29%     12.52% |        2061      6.29%     18.81% |        2008      6.13%     24.93% |        1985      6.06%     30.99% |        2059      6.28%     37.27% |        2061      6.29%     43.56% |        2061      6.29%     49.84% |        2061      6.29%     56.13% |        2061      6.29%     62.42% |        2061      6.29%     68.70% |        2061      6.29%     74.99% |        2062      6.29%     81.28% |        2049      6.25%     87.53% |        2050      6.25%     93.79% |        2037      6.21%    100.00% (Unspecified)
board.cache_hierarchy.ruby_system.L1Cache_Controller.M.Fwd_GETX::total        32781                       (Unspecified)
board.cache_hierarchy.ruby_system.L1Cache_Controller.M.Fwd_GETS |         406     70.86%     70.86% |          14      2.44%     73.30% |          12      2.09%     75.39% |          11      1.92%     77.31% |          12      2.09%     79.41% |          11      1.92%     81.33% |          11      1.92%     83.25% |          11      1.92%     85.17% |          11      1.92%     87.09% |          11      1.92%     89.01% |          11      1.92%     90.92% |          11      1.92%     92.84% |          12      2.09%     94.94% |          10      1.75%     96.68% |           8      1.40%     98.08% |           6      1.05%     99.13% |           5      0.87%    100.00% (Unspecified)
board.cache_hierarchy.ruby_system.L1Cache_Controller.M.Fwd_GETS::total          573                       (Unspecified)
board.cache_hierarchy.ruby_system.L1Cache_Controller.IS.Data_Exclusive |          72      3.70%      3.70% |         139      7.14%     10.84% |         132      6.78%     17.62% |         132      6.78%     24.40% |         133      6.83%     31.23% |         133      6.83%     38.06% |         133      6.83%     44.89% |         133      6.83%     51.72% |         133      6.83%     58.55% |         133      6.83%     65.38% |         133      6.83%     72.21% |         133      6.83%     79.04% |         133      6.83%     85.88% |         127      6.52%     92.40% |          73      3.75%     96.15% |          37      1.90%     98.05% |          38      1.95%    100.00% (Unspecified)
board.cache_hierarchy.ruby_system.L1Cache_Controller.IS.Data_Exclusive::total         1947                       (Unspecified)
board.cache_hierarchy.ruby_system.L1Cache_Controller.IS.DataS_fromL1 |          64     10.36%     10.36% |          22      3.56%     13.92% |          26      4.21%     18.12% |          21      3.40%     21.52% |          19      3.07%     24.60% |          19      3.07%     27.67% |          16      2.59%     30.26% |          17      2.75%     33.01% |          17      2.75%     35.76% |          17      2.75%     38.51% |          17      2.75%     41.26% |          18      2.91%     44.17% |          20      3.24%     47.41% |          24      3.88%     51.29% |          77     12.46%     63.75% |         113     18.28%     82.04% |         111     17.96%    100.00% (Unspecified)
board.cache_hierarchy.ruby_system.L1Cache_Controller.IS.DataS_fromL1::total          618                       (Unspecified)
board.cache_hierarchy.ruby_system.L1Cache_Controller.IS.Data_all_Acks |         364     10.90%     10.90% |         191      5.72%     16.62% |         200      5.99%     22.60% |         185      5.54%     28.14% |         180      5.39%     33.53% |         180      5.39%     38.92% |         184      5.51%     44.43% |         183      5.48%     49.91% |         184      5.51%     55.42% |         183      5.48%     60.90% |         183      5.48%     66.38% |         183      5.48%     71.86% |         182      5.45%     77.31% |         183      5.48%     82.78% |         185      5.54%     88.32% |         184      5.51%     93.83% |         206      6.17%    100.00% (Unspecified)
board.cache_hierarchy.ruby_system.L1Cache_Controller.IS.Data_all_Acks::total         3340                       (Unspecified)
board.cache_hierarchy.ruby_system.L1Cache_Controller.IM.Data |           1     50.00%     50.00% |           0      0.00%     50.00% |           0      0.00%     50.00% |           0      0.00%     50.00% |           0      0.00%     50.00% |           0      0.00%     50.00% |           0      0.00%     50.00% |           0      0.00%     50.00% |           0      0.00%     50.00% |           0      0.00%     50.00% |           0      0.00%     50.00% |           0      0.00%     50.00% |           0      0.00%     50.00% |           0      0.00%     50.00% |           0      0.00%     50.00% |           0      0.00%     50.00% |           1     50.00%    100.00% (Unspecified)
board.cache_hierarchy.ruby_system.L1Cache_Controller.IM.Data::total            2                       (Unspecified)
board.cache_hierarchy.ruby_system.L1Cache_Controller.IM.Data_all_Acks |         399      1.19%      1.19% |        2044      6.10%      7.30% |        2108      6.30%     13.59% |        2074      6.19%     19.79% |        2023      6.04%     25.83% |        1999      5.97%     31.80% |        2073      6.19%     37.99% |        2075      6.20%     44.19% |        2074      6.19%     50.38% |        2075      6.20%     56.58% |        2075      6.20%     62.78% |        2074      6.19%     68.97% |        2074      6.19%     75.16% |        2075      6.20%     81.36% |        2075      6.20%     87.56% |        2073      6.19%     93.75% |        2093      6.25%    100.00% (Unspecified)
board.cache_hierarchy.ruby_system.L1Cache_Controller.IM.Data_all_Acks::total        33483                       (Unspecified)
board.cache_hierarchy.ruby_system.L1Cache_Controller.SM.Inv |           0      0.00%      0.00% |           0      0.00%      0.00% |           0      0.00%      0.00% |           0      0.00%      0.00% |           0      0.00%      0.00% |           0      0.00%      0.00% |           0      0.00%      0.00% |           0      0.00%      0.00% |           0      0.00%      0.00% |           0      0.00%      0.00% |           0      0.00%      0.00% |           0      0.00%      0.00% |           0      0.00%      0.00% |           0      0.00%      0.00% |           1    100.00%    100.00% |           0      0.00%    100.00% |           0      0.00%    100.00% (Unspecified)
board.cache_hierarchy.ruby_system.L1Cache_Controller.SM.Inv::total            1                       (Unspecified)
board.cache_hierarchy.ruby_system.L1Cache_Controller.SM.Ack |          42     15.61%     15.61% |          11      4.09%     19.70% |          11      4.09%     23.79% |          15      5.58%     29.37% |          12      4.46%     33.83% |          12      4.46%     38.29% |          13      4.83%     43.12% |          13      4.83%     47.96% |          14      5.20%     53.16% |          13      4.83%     57.99% |          13      4.83%     62.83% |          14      5.20%     68.03% |          14      5.20%     73.23% |          14      5.20%     78.44% |          16      5.95%     84.39% |          16      5.95%     90.33% |          26      9.67%    100.00% (Unspecified)
board.cache_hierarchy.ruby_system.L1Cache_Controller.SM.Ack::total          269                       (Unspecified)
board.cache_hierarchy.ruby_system.L1Cache_Controller.SM.Ack_all |          38     16.31%     16.31% |          11      4.72%     21.03% |          11      4.72%     25.75% |          13      5.58%     31.33% |          12      5.15%     36.48% |          12      5.15%     41.63% |          12      5.15%     46.78% |          12      5.15%     51.93% |          13      5.58%     57.51% |          12      5.15%     62.66% |          12      5.15%     67.81% |          13      5.58%     73.39% |          14      6.01%     79.40% |          12      5.15%     84.55% |          12      5.15%     89.70% |          13      5.58%     95.28% |          11      4.72%    100.00% (Unspecified)
board.cache_hierarchy.ruby_system.L1Cache_Controller.SM.Ack_all::total          233                       (Unspecified)
board.cache_hierarchy.ruby_system.L1Cache_Controller.M_I.WB_Ack |         360    100.00%    100.00% |           0      0.00%    100.00% |           0      0.00%    100.00% |           0      0.00%    100.00% |           0      0.00%    100.00% |           0      0.00%    100.00% |           0      0.00%    100.00% |           0      0.00%    100.00% |           0      0.00%    100.00% |           0      0.00%    100.00% |           0      0.00%    100.00% |           0      0.00%    100.00% |           0      0.00%    100.00% |           0      0.00%    100.00% |           0      0.00%    100.00% |           0      0.00%    100.00% |           0      0.00%    100.00% (Unspecified)
board.cache_hierarchy.ruby_system.L1Cache_Controller.M_I.WB_Ack::total          360                       (Unspecified)
board.cache_hierarchy.ruby_system.L2Cache_Controller.L1_GET_INSTR |         195      6.28%      6.28% |         124      4.00%     10.28% |         131      4.22%     14.50% |         162      5.22%     19.72% |         188      6.06%     25.78% |         221      7.12%     32.90% |         224      7.22%     40.12% |         173      5.58%     45.70% |         180      5.80%     51.50% |         203      6.54%     58.04% |         182      5.87%     63.91% |         197      6.35%     70.25% |         220      7.09%     77.34% |         214      6.90%     84.24% |         243      7.83%     92.07% |         246      7.93%    100.00% (Unspecified)
board.cache_hierarchy.ruby_system.L2Cache_Controller.L1_GET_INSTR::total         3103                       (Unspecified)
board.cache_hierarchy.ruby_system.L2Cache_Controller.L1_GETS |         148      5.28%      5.28% |         212      7.56%     12.83% |         196      6.99%     19.82% |         204      7.27%     27.09% |         186      6.63%     33.73% |         184      6.56%     40.29% |         175      6.24%     46.52% |         139      4.96%     51.48% |         149      5.31%     56.79% |         187      6.67%     63.46% |         194      6.92%     70.37% |         132      4.71%     75.08% |         173      6.17%     81.25% |         159      5.67%     86.92% |         185      6.60%     93.51% |         182      6.49%    100.00% (Unspecified)
board.cache_hierarchy.ruby_system.L2Cache_Controller.L1_GETS::total         2805                       (Unspecified)
board.cache_hierarchy.ruby_system.L2Cache_Controller.L1_GETX |      226242     93.40%     93.40% |          55      0.02%     93.42% |          48      0.02%     93.44% |          50      0.02%     93.46% |          87      0.04%     93.50% |          95      0.04%     93.54% |          75      0.03%     93.57% |          78      0.03%     93.60% |          78      0.03%     93.63% |          45      0.02%     93.65% |          48      0.02%     93.67% |          30      0.01%     93.68% |          61      0.03%     93.71% |          61      0.03%     93.73% |          42      0.02%     93.75% |       15140      6.25%    100.00% (Unspecified)
board.cache_hierarchy.ruby_system.L2Cache_Controller.L1_GETX::total       242235                       (Unspecified)
board.cache_hierarchy.ruby_system.L2Cache_Controller.L1_UPGRADE |           2      0.86%      0.86% |          59     25.32%     26.18% |          30     12.88%     39.06% |          14      6.01%     45.06% |          18      7.73%     52.79% |          32     13.73%     66.52% |           8      3.43%     69.96% |           5      2.15%     72.10% |           0      0.00%     72.10% |           2      0.86%     72.96% |          22      9.44%     82.40% |           0      0.00%     82.40% |          20      8.58%     90.99% |           2      0.86%     91.85% |          17      7.30%     99.14% |           2      0.86%    100.00% (Unspecified)
board.cache_hierarchy.ruby_system.L2Cache_Controller.L1_UPGRADE::total          233                       (Unspecified)
board.cache_hierarchy.ruby_system.L2Cache_Controller.L1_PUTX |           7      1.94%      1.94% |          17      4.72%      6.67% |          15      4.17%     10.83% |          34      9.44%     20.28% |          47     13.06%     33.33% |          36     10.00%     43.33% |          29      8.06%     51.39% |          15      4.17%     55.56% |          17      4.72%     60.28% |          14      3.89%     64.17% |          28      7.78%     71.94% |          11      3.06%     75.00% |          29      8.06%     83.06% |          38     10.56%     93.61% |          13      3.61%     97.22% |          10      2.78%    100.00% (Unspecified)
board.cache_hierarchy.ruby_system.L2Cache_Controller.L1_PUTX::total          360                       (Unspecified)
board.cache_hierarchy.ruby_system.L2Cache_Controller.Mem_Data |          56      5.09%      5.09% |          69      6.27%     11.36% |          74      6.73%     18.09% |          76      6.91%     25.00% |          91      8.27%     33.27% |          92      8.36%     41.64% |          76      6.91%     48.55% |          70      6.36%     54.91% |          67      6.09%     61.00% |          69      6.27%     67.27% |          51      4.64%     71.91% |          39      3.55%     75.45% |          61      5.55%     81.00% |          71      6.45%     87.45% |          68      6.18%     93.64% |          70      6.36%    100.00% (Unspecified)
board.cache_hierarchy.ruby_system.L2Cache_Controller.Mem_Data::total         1100                       (Unspecified)
board.cache_hierarchy.ruby_system.L2Cache_Controller.WB_Data |          26      4.54%      4.54% |          94     16.40%     20.94% |          64     11.17%     32.11% |          29      5.06%     37.17% |          34      5.93%     43.11% |          56      9.77%     52.88% |          24      4.19%     57.07% |          21      3.66%     60.73% |          19      3.32%     64.05% |          38      6.63%     70.68% |          40      6.98%     77.66% |          19      3.32%     80.98% |          36      6.28%     87.26% |          18      3.14%     90.40% |          33      5.76%     96.16% |          22      3.84%    100.00% (Unspecified)
board.cache_hierarchy.ruby_system.L2Cache_Controller.WB_Data::total          573                       (Unspecified)
board.cache_hierarchy.ruby_system.L2Cache_Controller.WB_Data_clean |          12     26.67%     26.67% |           0      0.00%     26.67% |           1      2.22%     28.89% |          18     40.00%     68.89% |           1      2.22%     71.11% |           1      2.22%     73.33% |           1      2.22%     75.56% |           0      0.00%     75.56% |           2      4.44%     80.00% |           1      2.22%     82.22% |           2      4.44%     86.67% |           0      0.00%     86.67% |           1      2.22%     88.89% |           1      2.22%     91.11% |           2      4.44%     95.56% |           2      4.44%    100.00% (Unspecified)
board.cache_hierarchy.ruby_system.L2Cache_Controller.WB_Data_clean::total           45                       (Unspecified)
board.cache_hierarchy.ruby_system.L2Cache_Controller.Unblock |          38      6.15%      6.15% |          94     15.21%     21.36% |          65     10.52%     31.88% |          47      7.61%     39.48% |          35      5.66%     45.15% |          57      9.22%     54.37% |          25      4.05%     58.41% |          21      3.40%     61.81% |          21      3.40%     65.21% |          39      6.31%     71.52% |          42      6.80%     78.32% |          19      3.07%     81.39% |          37      5.99%     87.38% |          19      3.07%     90.45% |          35      5.66%     96.12% |          24      3.88%    100.00% (Unspecified)
board.cache_hierarchy.ruby_system.L2Cache_Controller.Unblock::total          618                       (Unspecified)
board.cache_hierarchy.ruby_system.L2Cache_Controller.Exclusive_Unblock |       24639     69.09%     69.09% |         228      0.64%     69.73% |         194      0.54%     70.27% |         197      0.55%     70.82% |         240      0.67%     71.50% |         254      0.71%     72.21% |         204      0.57%     72.78% |         200      0.56%     73.34% |         198      0.56%     73.90% |         177      0.50%     74.39% |         187      0.52%     74.92% |         143      0.40%     75.32% |         201      0.56%     75.88% |         188      0.53%     76.41% |         179      0.50%     76.91% |        8234     23.09%    100.00% (Unspecified)
board.cache_hierarchy.ruby_system.L2Cache_Controller.Exclusive_Unblock::total        35663                       (Unspecified)
board.cache_hierarchy.ruby_system.L2Cache_Controller.NP.L1_GET_INSTR |          25      6.53%      6.53% |          23      6.01%     12.53% |          27      7.05%     19.58% |          28      7.31%     26.89% |          27      7.05%     33.94% |          27      7.05%     40.99% |          26      6.79%     47.78% |          22      5.74%     53.52% |          18      4.70%     58.22% |          20      5.22%     63.45% |          19      4.96%     68.41% |          22      5.74%     74.15% |          27      7.05%     81.20% |          23      6.01%     87.21% |          24      6.27%     93.47% |          25      6.53%    100.00% (Unspecified)
board.cache_hierarchy.ruby_system.L2Cache_Controller.NP.L1_GET_INSTR::total          383                       (Unspecified)
board.cache_hierarchy.ruby_system.L2Cache_Controller.NP.L1_GETS |           0      0.00%      0.00% |           2      3.12%      3.12% |           0      0.00%      3.12% |           0      0.00%      3.12% |          16     25.00%     28.12% |           1      1.56%     29.69% |           2      3.12%     32.81% |           1      1.56%     34.38% |           1      1.56%     35.94% |          17     26.56%     62.50% |           1      1.56%     64.06% |           1      1.56%     65.62% |           2      3.12%     68.75% |           0      0.00%     68.75% |           3      4.69%     73.44% |          17     26.56%    100.00% (Unspecified)
board.cache_hierarchy.ruby_system.L2Cache_Controller.NP.L1_GETS::total           64                       (Unspecified)
board.cache_hierarchy.ruby_system.L2Cache_Controller.NP.L1_GETX |          31      4.75%      4.75% |          44      6.74%     11.49% |          47      7.20%     18.68% |          48      7.35%     26.03% |          48      7.35%     33.38% |          64      9.80%     43.19% |          48      7.35%     50.54% |          47      7.20%     57.73% |          48      7.35%     65.08% |          32      4.90%     69.98% |          31      4.75%     74.73% |          16      2.45%     77.18% |          32      4.90%     82.08% |          48      7.35%     89.43% |          41      6.28%     95.71% |          28      4.29%    100.00% (Unspecified)
board.cache_hierarchy.ruby_system.L2Cache_Controller.NP.L1_GETX::total          653                       (Unspecified)
board.cache_hierarchy.ruby_system.L2Cache_Controller.SS.L1_GET_INSTR |         170      6.25%      6.25% |         101      3.72%      9.97% |         104      3.83%     13.80% |         134      4.93%     18.73% |         161      5.92%     24.65% |         194      7.14%     31.79% |         197      7.25%     39.04% |         151      5.56%     44.59% |         162      5.96%     50.55% |         182      6.70%     57.25% |         163      6.00%     63.25% |         175      6.44%     69.68% |         193      7.10%     76.78% |         191      7.03%     83.81% |         219      8.06%     91.87% |         221      8.13%    100.00% (Unspecified)
board.cache_hierarchy.ruby_system.L2Cache_Controller.SS.L1_GET_INSTR::total         2718                       (Unspecified)
board.cache_hierarchy.ruby_system.L2Cache_Controller.SS.L1_GETS |           3      1.27%      1.27% |           3      1.27%      2.53% |          15      6.33%      8.86% |          24     10.13%     18.99% |          14      5.91%     24.89% |           0      0.00%     24.89% |          29     12.24%     37.13% |           1      0.42%     37.55% |           8      3.38%     40.93% |          18      7.59%     48.52% |          33     13.92%     62.45% |           0      0.00%     62.45% |          15      6.33%     68.78% |          15      6.33%     75.11% |          30     12.66%     87.76% |          29     12.24%    100.00% (Unspecified)
board.cache_hierarchy.ruby_system.L2Cache_Controller.SS.L1_GETS::total          237                       (Unspecified)
board.cache_hierarchy.ruby_system.L2Cache_Controller.SS.L1_GETX |           0      0.00%      0.00% |           0      0.00%      0.00% |           0      0.00%      0.00% |           0      0.00%      0.00% |           1     50.00%     50.00% |           0      0.00%     50.00% |           0      0.00%     50.00% |           0      0.00%     50.00% |           0      0.00%     50.00% |           0      0.00%     50.00% |           1     50.00%    100.00% |           0      0.00%    100.00% |           0      0.00%    100.00% |           0      0.00%    100.00% |           0      0.00%    100.00% |           0      0.00%    100.00% (Unspecified)
board.cache_hierarchy.ruby_system.L2Cache_Controller.SS.L1_GETX::total            2                       (Unspecified)
board.cache_hierarchy.ruby_system.L2Cache_Controller.SS.L1_UPGRADE |           2      0.87%      0.87% |          59     25.54%     26.41% |          30     12.99%     39.39% |          14      6.06%     45.45% |          17      7.36%     52.81% |          32     13.85%     66.67% |           8      3.46%     70.13% |           5      2.16%     72.29% |           0      0.00%     72.29% |           2      0.87%     73.16% |          22      9.52%     82.68% |           0      0.00%     82.68% |          19      8.23%     90.91% |           2      0.87%     91.77% |          17      7.36%     99.13% |           2      0.87%    100.00% (Unspecified)
board.cache_hierarchy.ruby_system.L2Cache_Controller.SS.L1_UPGRADE::total          231                       (Unspecified)
board.cache_hierarchy.ruby_system.L2Cache_Controller.M.L1_GETS |         107      5.68%      5.68% |         113      6.00%     11.68% |         116      6.16%     17.84% |         133      7.06%     24.91% |         120      6.37%     31.28% |         126      6.69%     37.97% |         119      6.32%     44.29% |         116      6.16%     50.45% |         119      6.32%     56.77% |         113      6.00%     62.77% |         116      6.16%     68.93% |         112      5.95%     74.88% |         119      6.32%     81.20% |         125      6.64%     87.84% |         117      6.21%     94.05% |         112      5.95%    100.00% (Unspecified)
board.cache_hierarchy.ruby_system.L2Cache_Controller.M.L1_GETS::total         1883                       (Unspecified)
board.cache_hierarchy.ruby_system.L2Cache_Controller.M.L1_GETX |           2      4.08%      4.08% |           1      2.04%      6.12% |           1      2.04%      8.16% |           2      4.08%     12.24% |          20     40.82%     53.06% |           2      4.08%     57.14% |           1      2.04%     59.18% |           2      4.08%     63.27% |           1      2.04%     65.31% |           0      0.00%     65.31% |           1      2.04%     67.35% |           1      2.04%     69.39% |          13     26.53%     95.92% |           0      0.00%     95.92% |           1      2.04%     97.96% |           1      2.04%    100.00% (Unspecified)
board.cache_hierarchy.ruby_system.L2Cache_Controller.M.L1_GETX::total           49                       (Unspecified)
board.cache_hierarchy.ruby_system.L2Cache_Controller.MT.L1_GETS |          38      6.15%      6.15% |          94     15.21%     21.36% |          65     10.52%     31.88% |          47      7.61%     39.48% |          35      5.66%     45.15% |          57      9.22%     54.37% |          25      4.05%     58.41% |          21      3.40%     61.81% |          21      3.40%     65.21% |          39      6.31%     71.52% |          42      6.80%     78.32% |          19      3.07%     81.39% |          37      5.99%     87.38% |          19      3.07%     90.45% |          35      5.66%     96.12% |          24      3.88%    100.00% (Unspecified)
board.cache_hierarchy.ruby_system.L2Cache_Controller.MT.L1_GETS::total          618                       (Unspecified)
board.cache_hierarchy.ruby_system.L2Cache_Controller.MT.L1_GETX |       24497     74.73%     74.73% |           9      0.03%     74.76% |           0      0.00%     74.76% |           0      0.00%     74.76% |          18      0.05%     74.81% |          29      0.09%     74.90% |          26      0.08%     74.98% |          29      0.09%     75.07% |          29      0.09%     75.16% |          13      0.04%     75.20% |          15      0.05%     75.24% |          13      0.04%     75.28% |          16      0.05%     75.33% |          13      0.04%     75.37% |           0      0.00%     75.37% |        8074     24.63%    100.00% (Unspecified)
board.cache_hierarchy.ruby_system.L2Cache_Controller.MT.L1_GETX::total        32781                       (Unspecified)
board.cache_hierarchy.ruby_system.L2Cache_Controller.MT.L1_PUTX |           7      1.94%      1.94% |          17      4.72%      6.67% |          15      4.17%     10.83% |          34      9.44%     20.28% |          47     13.06%     33.33% |          36     10.00%     43.33% |          29      8.06%     51.39% |          15      4.17%     55.56% |          17      4.72%     60.28% |          14      3.89%     64.17% |          28      7.78%     71.94% |          11      3.06%     75.00% |          29      8.06%     83.06% |          38     10.56%     93.61% |          13      3.61%     97.22% |          10      2.78%    100.00% (Unspecified)
board.cache_hierarchy.ruby_system.L2Cache_Controller.MT.L1_PUTX::total          360                       (Unspecified)
board.cache_hierarchy.ruby_system.L2Cache_Controller.ISS.Mem_Data |           0      0.00%      0.00% |           2      3.12%      3.12% |           0      0.00%      3.12% |           0      0.00%      3.12% |          16     25.00%     28.12% |           1      1.56%     29.69% |           2      3.12%     32.81% |           1      1.56%     34.38% |           1      1.56%     35.94% |          17     26.56%     62.50% |           1      1.56%     64.06% |           1      1.56%     65.62% |           2      3.12%     68.75% |           0      0.00%     68.75% |           3      4.69%     73.44% |          17     26.56%    100.00% (Unspecified)
board.cache_hierarchy.ruby_system.L2Cache_Controller.ISS.Mem_Data::total           64                       (Unspecified)
board.cache_hierarchy.ruby_system.L2Cache_Controller.IS.L1_GET_INSTR |           0      0.00%      0.00% |           0      0.00%      0.00% |           0      0.00%      0.00% |           0      0.00%      0.00% |           0      0.00%      0.00% |           0      0.00%      0.00% |           1     50.00%     50.00% |           0      0.00%     50.00% |           0      0.00%     50.00% |           1     50.00%    100.00% |           0      0.00%    100.00% |           0      0.00%    100.00% |           0      0.00%    100.00% |           0      0.00%    100.00% |           0      0.00%    100.00% |           0      0.00%    100.00% (Unspecified)
board.cache_hierarchy.ruby_system.L2Cache_Controller.IS.L1_GET_INSTR::total            2                       (Unspecified)
board.cache_hierarchy.ruby_system.L2Cache_Controller.IS.Mem_Data |          25      6.53%      6.53% |          23      6.01%     12.53% |          27      7.05%     19.58% |          28      7.31%     26.89% |          27      7.05%     33.94% |          27      7.05%     40.99% |          26      6.79%     47.78% |          22      5.74%     53.52% |          18      4.70%     58.22% |          20      5.22%     63.45% |          19      4.96%     68.41% |          22      5.74%     74.15% |          27      7.05%     81.20% |          23      6.01%     87.21% |          24      6.27%     93.47% |          25      6.53%    100.00% (Unspecified)
board.cache_hierarchy.ruby_system.L2Cache_Controller.IS.Mem_Data::total          383                       (Unspecified)
board.cache_hierarchy.ruby_system.L2Cache_Controller.IM.Mem_Data |          31      4.75%      4.75% |          44      6.74%     11.49% |          47      7.20%     18.68% |          48      7.35%     26.03% |          48      7.35%     33.38% |          64      9.80%     43.19% |          48      7.35%     50.54% |          47      7.20%     57.73% |          48      7.35%     65.08% |          32      4.90%     69.98% |          31      4.75%     74.73% |          16      2.45%     77.18% |          32      4.90%     82.08% |          48      7.35%     89.43% |          41      6.28%     95.71% |          28      4.29%    100.00% (Unspecified)
board.cache_hierarchy.ruby_system.L2Cache_Controller.IM.Mem_Data::total          653                       (Unspecified)
board.cache_hierarchy.ruby_system.L2Cache_Controller.SS_MB.L1_GETX |           0      0.00%      0.00% |           1    100.00%    100.00% |           0      0.00%    100.00% |           0      0.00%    100.00% |           0      0.00%    100.00% |           0      0.00%    100.00% |           0      0.00%    100.00% |           0      0.00%    100.00% |           0      0.00%    100.00% |           0      0.00%    100.00% |           0      0.00%    100.00% |           0      0.00%    100.00% |           0      0.00%    100.00% |           0      0.00%    100.00% |           0      0.00%    100.00% |           0      0.00%    100.00% (Unspecified)
board.cache_hierarchy.ruby_system.L2Cache_Controller.SS_MB.L1_GETX::total            1                       (Unspecified)
board.cache_hierarchy.ruby_system.L2Cache_Controller.SS_MB.L1_UPGRADE |           0      0.00%      0.00% |           0      0.00%      0.00% |           0      0.00%      0.00% |           0      0.00%      0.00% |           1    100.00%    100.00% |           0      0.00%    100.00% |           0      0.00%    100.00% |           0      0.00%    100.00% |           0      0.00%    100.00% |           0      0.00%    100.00% |           0      0.00%    100.00% |           0      0.00%    100.00% |           0      0.00%    100.00% |           0      0.00%    100.00% |           0      0.00%    100.00% |           0      0.00%    100.00% (Unspecified)
board.cache_hierarchy.ruby_system.L2Cache_Controller.SS_MB.L1_UPGRADE::total            1                       (Unspecified)
board.cache_hierarchy.ruby_system.L2Cache_Controller.SS_MB.Exclusive_Unblock |           2      0.86%      0.86% |          59     25.32%     26.18% |          30     12.88%     39.06% |          14      6.01%     45.06% |          18      7.73%     52.79% |          32     13.73%     66.52% |           8      3.43%     69.96% |           5      2.15%     72.10% |           0      0.00%     72.10% |           2      0.86%     72.96% |          23      9.87%     82.83% |           0      0.00%     82.83% |          19      8.15%     90.99% |           2      0.86%     91.85% |          17      7.30%     99.14% |           2      0.86%    100.00% (Unspecified)
board.cache_hierarchy.ruby_system.L2Cache_Controller.SS_MB.Exclusive_Unblock::total          233                       (Unspecified)
board.cache_hierarchy.ruby_system.L2Cache_Controller.MT_MB.L1_GETS |           0      0.00%      0.00% |           0      0.00%      0.00% |           0      0.00%      0.00% |           0      0.00%      0.00% |           1    100.00%    100.00% |           0      0.00%    100.00% |           0      0.00%    100.00% |           0      0.00%    100.00% |           0      0.00%    100.00% |           0      0.00%    100.00% |           0      0.00%    100.00% |           0      0.00%    100.00% |           0      0.00%    100.00% |           0      0.00%    100.00% |           0      0.00%    100.00% |           0      0.00%    100.00% (Unspecified)
board.cache_hierarchy.ruby_system.L2Cache_Controller.MT_MB.L1_GETS::total            1                       (Unspecified)
board.cache_hierarchy.ruby_system.L2Cache_Controller.MT_MB.L1_GETX |      201712     96.63%     96.63% |           0      0.00%     96.63% |           0      0.00%     96.63% |           0      0.00%     96.63% |           0      0.00%     96.63% |           0      0.00%     96.63% |           0      0.00%     96.63% |           0      0.00%     96.63% |           0      0.00%     96.63% |           0      0.00%     96.63% |           0      0.00%     96.63% |           0      0.00%     96.63% |           0      0.00%     96.63% |           0      0.00%     96.63% |           0      0.00%     96.63% |        7037      3.37%    100.00% (Unspecified)
board.cache_hierarchy.ruby_system.L2Cache_Controller.MT_MB.L1_GETX::total       208749                       (Unspecified)
board.cache_hierarchy.ruby_system.L2Cache_Controller.MT_MB.Exclusive_Unblock |       24637     69.54%     69.54% |         169      0.48%     70.01% |         164      0.46%     70.48% |         183      0.52%     70.99% |         222      0.63%     71.62% |         222      0.63%     72.25% |         196      0.55%     72.80% |         195      0.55%     73.35% |         198      0.56%     73.91% |         175      0.49%     74.40% |         164      0.46%     74.87% |         143      0.40%     75.27% |         182      0.51%     75.78% |         186      0.52%     76.31% |         162      0.46%     76.77% |        8232     23.23%    100.00% (Unspecified)
board.cache_hierarchy.ruby_system.L2Cache_Controller.MT_MB.Exclusive_Unblock::total        35430                       (Unspecified)
board.cache_hierarchy.ruby_system.L2Cache_Controller.MT_IIB.L1_GETS |           0      0.00%      0.00% |           0      0.00%      0.00% |           0      0.00%      0.00% |           0      0.00%      0.00% |           0      0.00%      0.00% |           0      0.00%      0.00% |           0      0.00%      0.00% |           0      0.00%      0.00% |           0      0.00%      0.00% |           0      0.00%      0.00% |           2    100.00%    100.00% |           0      0.00%    100.00% |           0      0.00%    100.00% |           0      0.00%    100.00% |           0      0.00%    100.00% |           0      0.00%    100.00% (Unspecified)
board.cache_hierarchy.ruby_system.L2Cache_Controller.MT_IIB.L1_GETS::total            2                       (Unspecified)
board.cache_hierarchy.ruby_system.L2Cache_Controller.MT_IIB.WB_Data |          25      4.74%      4.74% |          67     12.71%     17.46% |          64     12.14%     29.60% |          28      5.31%     34.91% |          32      6.07%     40.99% |          56     10.63%     51.61% |          23      4.36%     55.98% |          21      3.98%     59.96% |          19      3.61%     63.57% |          37      7.02%     70.59% |          28      5.31%     75.90% |          19      3.61%     79.51% |          36      6.83%     86.34% |          18      3.42%     89.75% |          33      6.26%     96.02% |          21      3.98%    100.00% (Unspecified)
board.cache_hierarchy.ruby_system.L2Cache_Controller.MT_IIB.WB_Data::total          527                       (Unspecified)
board.cache_hierarchy.ruby_system.L2Cache_Controller.MT_IIB.WB_Data_clean |          12     41.38%     41.38% |           0      0.00%     41.38% |           1      3.45%     44.83% |           3     10.34%     55.17% |           1      3.45%     58.62% |           1      3.45%     62.07% |           1      3.45%     65.52% |           0      0.00%     65.52% |           1      3.45%     68.97% |           1      3.45%     72.41% |           2      6.90%     79.31% |           0      0.00%     79.31% |           1      3.45%     82.76% |           1      3.45%     86.21% |           2      6.90%     93.10% |           2      6.90%    100.00% (Unspecified)
board.cache_hierarchy.ruby_system.L2Cache_Controller.MT_IIB.WB_Data_clean::total           29                       (Unspecified)
board.cache_hierarchy.ruby_system.L2Cache_Controller.MT_IIB.Unblock |           1      1.61%      1.61% |          27     43.55%     45.16% |           0      0.00%     45.16% |          16     25.81%     70.97% |           2      3.23%     74.19% |           0      0.00%     74.19% |           1      1.61%     75.81% |           0      0.00%     75.81% |           1      1.61%     77.42% |           1      1.61%     79.03% |          12     19.35%     98.39% |           0      0.00%     98.39% |           0      0.00%     98.39% |           0      0.00%     98.39% |           0      0.00%     98.39% |           1      1.61%    100.00% (Unspecified)
board.cache_hierarchy.ruby_system.L2Cache_Controller.MT_IIB.Unblock::total           62                       (Unspecified)
board.cache_hierarchy.ruby_system.L2Cache_Controller.MT_IB.WB_Data |           1      2.17%      2.17% |          27     58.70%     60.87% |           0      0.00%     60.87% |           1      2.17%     63.04% |           2      4.35%     67.39% |           0      0.00%     67.39% |           1      2.17%     69.57% |           0      0.00%     69.57% |           0      0.00%     69.57% |           1      2.17%     71.74% |          12     26.09%     97.83% |           0      0.00%     97.83% |           0      0.00%     97.83% |           0      0.00%     97.83% |           0      0.00%     97.83% |           1      2.17%    100.00% (Unspecified)
board.cache_hierarchy.ruby_system.L2Cache_Controller.MT_IB.WB_Data::total           46                       (Unspecified)
board.cache_hierarchy.ruby_system.L2Cache_Controller.MT_IB.WB_Data_clean |           0      0.00%      0.00% |           0      0.00%      0.00% |           0      0.00%      0.00% |          15     93.75%     93.75% |           0      0.00%     93.75% |           0      0.00%     93.75% |           0      0.00%     93.75% |           0      0.00%     93.75% |           1      6.25%    100.00% |           0      0.00%    100.00% |           0      0.00%    100.00% |           0      0.00%    100.00% |           0      0.00%    100.00% |           0      0.00%    100.00% |           0      0.00%    100.00% |           0      0.00%    100.00% (Unspecified)
board.cache_hierarchy.ruby_system.L2Cache_Controller.MT_IB.WB_Data_clean::total           16                       (Unspecified)
board.cache_hierarchy.ruby_system.L2Cache_Controller.MT_SB.L1_UPGRADE |           0      0.00%      0.00% |           0      0.00%      0.00% |           0      0.00%      0.00% |           0      0.00%      0.00% |           0      0.00%      0.00% |           0      0.00%      0.00% |           0      0.00%      0.00% |           0      0.00%      0.00% |           0      0.00%      0.00% |           0      0.00%      0.00% |           0      0.00%      0.00% |           0      0.00%      0.00% |           1    100.00%    100.00% |           0      0.00%    100.00% |           0      0.00%    100.00% |           0      0.00%    100.00% (Unspecified)
board.cache_hierarchy.ruby_system.L2Cache_Controller.MT_SB.L1_UPGRADE::total            1                       (Unspecified)
board.cache_hierarchy.ruby_system.L2Cache_Controller.MT_SB.Unblock |          37      6.65%      6.65% |          67     12.05%     18.71% |          65     11.69%     30.40% |          31      5.58%     35.97% |          33      5.94%     41.91% |          57     10.25%     52.16% |          24      4.32%     56.47% |          21      3.78%     60.25% |          20      3.60%     63.85% |          38      6.83%     70.68% |          30      5.40%     76.08% |          19      3.42%     79.50% |          37      6.65%     86.15% |          19      3.42%     89.57% |          35      6.29%     95.86% |          23      4.14%    100.00% (Unspecified)
board.cache_hierarchy.ruby_system.L2Cache_Controller.MT_SB.Unblock::total          556                       (Unspecified)
board.cache_hierarchy.ruby_system.RequestType.LD.latency_hist_seqr::bucket_size          128                       (Unspecified)
board.cache_hierarchy.ruby_system.RequestType.LD.latency_hist_seqr::max_bucket         1279                       (Unspecified)
board.cache_hierarchy.ruby_system.RequestType.LD.latency_hist_seqr::samples       382866                       (Unspecified)
board.cache_hierarchy.ruby_system.RequestType.LD.latency_hist_seqr::mean     1.171606                       (Unspecified)
board.cache_hierarchy.ruby_system.RequestType.LD.latency_hist_seqr::gmean     1.023007                       (Unspecified)
board.cache_hierarchy.ruby_system.RequestType.LD.latency_hist_seqr::stdev     2.778310                       (Unspecified)
board.cache_hierarchy.ruby_system.RequestType.LD.latency_hist_seqr |      382839     99.99%     99.99% |          25      0.01%    100.00% |           0      0.00%    100.00% |           1      0.00%    100.00% |           0      0.00%    100.00% |           1      0.00%    100.00% |           0      0.00%    100.00% |           0      0.00%    100.00% |           0      0.00%    100.00% |           0      0.00%    100.00% (Unspecified)
[...]
board.processor.cores9.core.executeStats0.numMemRefs        73084                       # Number of memory refs (Count)
board.processor.cores9.core.executeStats0.numMiscRegReads       101052                       # Number of times the Misc registers were read (Count)
board.processor.cores9.core.executeStats0.numMiscRegWrites            1                       # Number of times the Misc registers were written (Count)
board.processor.cores9.core.executeStats0.numVecAluAccesses            0                       # Number of vector alu accesses (Count)
board.processor.cores9.core.executeStats0.numDiscardedOps            0                       # Number of ops (including micro ops) which were discarded before commit (Count)
board.processor.cores9.core.fetch.predictedBranches        16970                       # Number of branches that fetch has predicted taken (Count)
board.processor.cores9.core.fetch.cycles       667787                       # Number of cycles fetch has run and was not squashing or blocked (Cycle)
board.processor.cores9.core.fetch.squashCycles         4598                       # Number of cycles fetch has spent squashing (Cycle)
board.processor.cores9.core.fetch.miscStallCycles           33                       # Number of cycles fetch has spent waiting on interrupts, or bad addresses, or out of MSHRs (Cycle)
board.processor.cores9.core.fetch.pendingTrapStallCycles          187                       # Number of stall cycles due to pending traps (Cycle)
board.processor.cores9.core.fetch.cacheLines        31580                       # Number of cache lines fetched (Count)
board.processor.cores9.core.fetch.icacheSquashes           95                       # Number of outstanding Icache misses that were squashed (Count)
board.processor.cores9.core.fetch.nisnDist::samples       706413                       # Number of instructions fetched each cycle (Total) (Count)
board.processor.cores9.core.fetch.nisnDist::mean     0.548069                       # Number of instructions fetched each cycle (Total) (Count)
board.processor.cores9.core.fetch.nisnDist::stdev     1.882856                       # Number of instructions fetched each cycle (Total) (Count)
board.processor.cores9.core.fetch.nisnDist::underflows            0      0.00%      0.00% # Number of instructions fetched each cycle (Total) (Count)
board.processor.cores9.core.fetch.nisnDist::0       641358     90.79%     90.79% # Number of instructions fetched each cycle (Total) (Count)
board.processor.cores9.core.fetch.nisnDist::1         4149      0.59%     91.38% # Number of instructions fetched each cycle (Total) (Count)
board.processor.cores9.core.fetch.nisnDist::2         8241      1.17%     92.54% # Number of instructions fetched each cycle (Total) (Count)
board.processor.cores9.core.fetch.nisnDist::3         4174      0.59%     93.14% # Number of instructions fetched each cycle (Total) (Count)
board.processor.cores9.core.fetch.nisnDist::4           92      0.01%     93.15% # Number of instructions fetched each cycle (Total) (Count)
board.processor.cores9.core.fetch.nisnDist::5         4232      0.60%     93.75% # Number of instructions fetched each cycle (Total) (Count)
board.processor.cores9.core.fetch.nisnDist::6        10348      1.46%     95.21% # Number of instructions fetched each cycle (Total) (Count)
board.processor.cores9.core.fetch.nisnDist::7          158      0.02%     95.23% # Number of instructions fetched each cycle (Total) (Count)
board.processor.cores9.core.fetch.nisnDist::8        33661      4.77%    100.00% # Number of instructions fetched each cycle (Total) (Count)
board.processor.cores9.core.fetch.nisnDist::overflows            0      0.00%    100.00% # Number of instructions fetched each cycle (Total) (Count)
board.processor.cores9.core.fetch.nisnDist::min_value            0                       # Number of instructions fetched each cycle (Total) (Count)
board.processor.cores9.core.fetch.nisnDist::max_value            8                       # Number of instructions fetched each cycle (Total) (Count)
board.processor.cores9.core.fetch.nisnDist::total       706413                       # Number of instructions fetched each cycle (Total) (Count)
board.processor.cores9.core.fetchStats0.numInsts       230175                       # Number of instructions fetched (thread level) (Count)
board.processor.cores9.core.fetchStats0.numOps            0                       # Number of ops (including micro ops) fetched (thread level) (Count)
board.processor.cores9.core.fetchStats0.fetchRate     0.325761                       # Number of inst fetches per cycle ((Count/Cycle))
board.processor.cores9.core.fetchStats0.numBranches        23703                       # Number of branches fetched (Count)
board.processor.cores9.core.fetchStats0.branchRate     0.033546                       # Number of branch fetches per cycle (Ratio)
board.processor.cores9.core.fetchStats0.icacheStallCycles        36107                       # ICache total stall cycles (Cycle)
board.processor.cores9.core.fetchStats0.numFetchSuspends            0                       # Number of times Execute suspended instruction fetching (Count)
board.processor.cores9.core.iew.idleCycles            0                       # Number of cycles IEW is idle (Cycle)
board.processor.cores9.core.iew.squashCycles         2187                       # Number of cycles IEW is squashing (Cycle)
board.processor.cores9.core.iew.blockCycles       595368                       # Number of cycles IEW is blocking (Cycle)
board.processor.cores9.core.iew.unblockCycles         4518                       # Number of cycles IEW is unblocking (Cycle)
board.processor.cores9.core.iew.dispatchedInsts       302755                       # Number of instructions dispatched to IQ (Count)
board.processor.cores9.core.iew.dispSquashedInsts           24                       # Number of squashed instructions skipped by dispatch (Count)
board.processor.cores9.core.iew.dispLoadInsts        76910                       # Number of dispatched load instructions (Count)
board.processor.cores9.core.iew.dispStoreInsts        25273                       # Number of dispatched store instructions (Count)
board.processor.cores9.core.iew.dispNonSpecInsts         4123                       # Number of dispatched non-speculative instructions (Count)
board.processor.cores9.core.iew.iqFullEvents         2337                       # Number of times the IQ has become full, causing a stall (Count)
board.processor.cores9.core.iew.lsqFullEvents            1                       # Number of times the LSQ has become full, causing a stall (Count)
board.processor.cores9.core.iew.memOrderViolationEvents         2058                       # Number of memory order violations (Count)
board.processor.cores9.core.iew.predictedTakenIncorrect            6                       # Number of branches that were predicted taken incorrectly (Count)
board.processor.cores9.core.iew.predictedNotTakenIncorrect          134                       # Number of branches that were predicted not taken incorrectly (Count)
board.processor.cores9.core.iew.branchMispredicts          140                       # Number of branch mispredicts detected at execute (Count)
board.processor.cores9.core.iew.instsToCommit       219251                       # Cumulative count of insts sent to commit (Count)
board.processor.cores9.core.iew.writebackCount       219134                       # Cumulative count of insts written-back (Count)
board.processor.cores9.core.iew.producerInst       163568                       # Number of instructions producing a value (Count)
board.processor.cores9.core.iew.consumerInst       256102                       # Number of instructions consuming a value (Count)
board.processor.cores9.core.iew.wbRate       0.310135                       # Insts written-back per cycle ((Count/Cycle))
board.processor.cores9.core.iew.wbFanout     0.638683                       # Average fanout of values written-back ((Count/Count))
board.processor.cores9.core.interrupts.clk_domain.clock         8000                       # Clock period in ticks (Tick)
board.processor.cores9.core.lsq0.forwLoads         4303                       # Number of loads that had data forwarded from stores (Count)
board.processor.cores9.core.lsq0.squashedLoads        43571                       # Number of loads squashed (Count)
board.processor.cores9.core.lsq0.ignoredResponses            0                       # Number of memory responses ignored because the instruction is squashed (Count)
board.processor.cores9.core.lsq0.memOrderViolation         2058                       # Number of memory ordering violations (Count)
board.processor.cores9.core.lsq0.squashedStores        12544                       # Number of stores squashed (Count)
board.processor.cores9.core.lsq0.rescheduledLoads            0                       # Number of loads that were rescheduled (Count)
board.processor.cores9.core.lsq0.blockedByCache            0                       # Number of times an access to memory failed due to the cache being blocked (Count)
board.processor.cores9.core.lsq0.loadToUse::samples        33339                       # Distribution of cycle latency between the first time a load is issued and its completion (Unspecified)
board.processor.cores9.core.lsq0.loadToUse::mean    19.306818                       # Distribution of cycle latency between the first time a load is issued and its completion (Unspecified)
board.processor.cores9.core.lsq0.loadToUse::stdev    64.876730                       # Distribution of cycle latency between the first time a load is issued and its completion (Unspecified)
board.processor.cores9.core.lsq0.loadToUse::0-9        31126     93.36%     93.36% # Distribution of cycle latency between the first time a load is issued and its completion (Unspecified)
board.processor.cores9.core.lsq0.loadToUse::10-19            8      0.02%     93.39% # Distribution of cycle latency between the first time a load is issued and its completion (Unspecified)
board.processor.cores9.core.lsq0.loadToUse::20-29          140      0.42%     93.81% # Distribution of cycle latency between the first time a load is issued and its completion (Unspecified)
board.processor.cores9.core.lsq0.loadToUse::30-39           13      0.04%     93.85% # Distribution of cycle latency between the first time a load is issued and its completion (Unspecified)
board.processor.cores9.core.lsq0.loadToUse::50-59            5      0.01%     93.86% # Distribution of cycle latency between the first time a load is issued and its completion (Unspecified)
board.processor.cores9.core.lsq0.loadToUse::60-69            4      0.01%     93.87% # Distribution of cycle latency between the first time a load is issued and its completion (Unspecified)
board.processor.cores9.core.lsq0.loadToUse::70-79           34      0.10%     93.97% # Distribution of cycle latency between the first time a load is issued and its completion (Unspecified)
board.processor.cores9.core.lsq0.loadToUse::80-89            3      0.01%     93.98% # Distribution of cycle latency between the first time a load is issued and its completion (Unspecified)
board.processor.cores9.core.lsq0.loadToUse::100-109           28      0.08%     94.07% # Distribution of cycle latency between the first time a load is issued and its completion (Unspecified)
board.processor.cores9.core.lsq0.loadToUse::110-119            4      0.01%     94.08% # Distribution of cycle latency between the first time a load is issued and its completion (Unspecified)
board.processor.cores9.core.lsq0.loadToUse::130-139           19      0.06%     94.14% # Distribution of cycle latency between the first time a load is issued and its completion (Unspecified)
board.processor.cores9.core.lsq0.loadToUse::140-149            5      0.01%     94.15% # Distribution of cycle latency between the first time a load is issued and its completion (Unspecified)
board.processor.cores9.core.lsq0.loadToUse::160-169           58      0.17%     94.32% # Distribution of cycle latency between the first time a load is issued and its completion (Unspecified)
board.processor.cores9.core.lsq0.loadToUse::170-179            7      0.02%     94.35% # Distribution of cycle latency between the first time a load is issued and its completion (Unspecified)
board.processor.cores9.core.lsq0.loadToUse::180-189            1      0.00%     94.35% # Distribution of cycle latency between the first time a load is issued and its completion (Unspecified)
board.processor.cores9.core.lsq0.loadToUse::190-199           52      0.16%     94.50% # Distribution of cycle latency between the first time a load is issued and its completion (Unspecified)
board.processor.cores9.core.lsq0.loadToUse::200-209            4      0.01%     94.52% # Distribution of cycle latency between the first time a load is issued and its completion (Unspecified)
board.processor.cores9.core.lsq0.loadToUse::220-229           52      0.16%     94.67% # Distribution of cycle latency between the first time a load is issued and its completion (Unspecified)
board.processor.cores9.core.lsq0.loadToUse::230-239           11      0.03%     94.71% # Distribution of cycle latency between the first time a load is issued and its completion (Unspecified)
board.processor.cores9.core.lsq0.loadToUse::240-249            1      0.00%     94.71% # Distribution of cycle latency between the first time a load is issued and its completion (Unspecified)
board.processor.cores9.core.lsq0.loadToUse::250-259           82      0.25%     94.95% # Distribution of cycle latency between the first time a load is issued and its completion (Unspecified)
board.processor.cores9.core.lsq0.loadToUse::260-269           99      0.30%     95.25% # Distribution of cycle latency between the first time a load is issued and its completion (Unspecified)
board.processor.cores9.core.lsq0.loadToUse::270-279            7      0.02%     95.27% # Distribution of cycle latency between the first time a load is issued and its completion (Unspecified)
board.processor.cores9.core.lsq0.loadToUse::280-289         1568      4.70%     99.98% # Distribution of cycle latency between the first time a load is issued and its completion (Unspecified)
board.processor.cores9.core.lsq0.loadToUse::290-299            8      0.02%    100.00% # Distribution of cycle latency between the first time a load is issued and its completion (Unspecified)
board.processor.cores9.core.lsq0.loadToUse::min_value            2                       # Distribution of cycle latency between the first time a load is issued and its completion (Unspecified)
board.processor.cores9.core.lsq0.loadToUse::max_value          292                       # Distribution of cycle latency between the first time a load is issued and its completion (Unspecified)
board.processor.cores9.core.lsq0.loadToUse::total        33339                       # Distribution of cycle latency between the first time a load is issued and its completion (Unspecified)
board.processor.cores9.core.mmu.dtb.rdAccesses        56127                       # TLB accesses on read requests (Count)
board.processor.cores9.core.mmu.dtb.wrAccesses        16957                       # TLB accesses on write requests (Count)
board.processor.cores9.core.mmu.dtb.rdMisses           68                       # TLB misses on read requests (Count)
board.processor.cores9.core.mmu.dtb.wrMisses           11                       # TLB misses on write requests (Count)
board.processor.cores9.core.mmu.dtb.walker.power_state.pwrStateResidencyTicks::UNDEFINED    685757500                       # Cumulative time (in ticks) in various power states (Tick)
board.processor.cores9.core.mmu.itb.rdAccesses            0                       # TLB accesses on read requests (Count)
board.processor.cores9.core.mmu.itb.wrAccesses        31615                       # TLB accesses on write requests (Count)
board.processor.cores9.core.mmu.itb.rdMisses            0                       # TLB misses on read requests (Count)
board.processor.cores9.core.mmu.itb.wrMisses           77                       # TLB misses on write requests (Count)
board.processor.cores9.core.mmu.itb.walker.power_state.pwrStateResidencyTicks::UNDEFINED    685757500                       # Cumulative time (in ticks) in various power states (Tick)
board.processor.cores9.core.power_state.pwrStateResidencyTicks::ON    685757500                       # Cumulative time (in ticks) in various power states (Tick)
board.processor.cores9.core.rename.squashCycles         2187                       # Number of cycles rename is squashing (Cycle)
board.processor.cores9.core.rename.idleCycles        23669                       # Number of cycles rename is idle (Cycle)
board.processor.cores9.core.rename.blockCycles       618990                       # Number of cycles rename is blocking (Cycle)
board.processor.cores9.core.rename.serializeStallCycles            0                       # count of cycles rename stalled for serializing inst (Cycle)
board.processor.cores9.core.rename.runCycles        46189                       # Number of cycles rename is running (Cycle)
board.processor.cores9.core.rename.unblockCycles        15378                       # Number of cycles rename is unblocking (Cycle)
board.processor.cores9.core.rename.renamedInsts       319687                       # Number of instructions processed by rename (Count)
board.processor.cores9.core.rename.IQFullEvents        12746                       # Number of times rename has blocked due to IQ full (Count)
board.processor.cores9.core.rename.LQFullEvents           63                       # Number of times rename has blocked due to LQ full (Count)
board.processor.cores9.core.rename.SQFullEvents          389                       # Number of times rename has blocked due to SQ full (Count)
board.processor.cores9.core.rename.renamedOperands       488831                       # Number of destination operands rename has renamed (Count)
board.processor.cores9.core.rename.lookups       978949                       # Number of register rename lookups that rename has made (Count)
board.processor.cores9.core.rename.intLookups       426014                       # Number of integer rename lookups (Count)
board.processor.cores9.core.rename.fpLookups           21                       # Number of floating rename lookups (Count)
board.processor.cores9.core.rename.committedMaps       196362                       # Number of HB maps that are committed (Count)
board.processor.cores9.core.rename.undoneMaps       292469                       # Number of HB maps that are undone due to squashing (Count)
board.processor.cores9.core.rename.serializing            0                       # count of serializing insts renamed (Count)
board.processor.cores9.core.rename.tempSerializing            0                       # count of temporary serializing insts renamed (Count)
board.processor.cores9.core.rename.skidInsts        31355                       # count of insts added to the skid buffer (Count)
board.processor.cores9.core.rob.reads          979742                       # The number of ROB reads (Count)
board.processor.cores9.core.rob.writes         628253                       # The number of ROB writes (Count)
board.processor.cores9.core.thread_0.numInsts        77732                       # Number of Instructions committed (Count)
board.processor.cores9.core.thread_0.numOps       133179                       # Number of Ops committed (Count)
board.processor.cores9.core.thread_0.numMemRefs            0                       # Number of Memory References (Count)
board.workload.inst.arm                             0                       # number of arm instructions executed (Count)
board.workload.inst.quiesce                         0                       # number of quiesce instructions executed (Count)

---------- End Simulation Statistics   ----------
