
---------- Begin Simulation Statistics ----------
simSeconds                                   0.000503                       # Number of seconds simulated (Second)
simTicks                                    503309000                       # Number of ticks simulated (Tick)
finalTick                                   769832500                       # Number of ticks from beginning of simulation (restored from checkpoints and never reset) (Tick)
simFreq                                  1000000000000                       # The number of ticks per simulated second ((Tick/Second))
hostSeconds                                     26.05                       # Real time elapsed on the host (Second)
hostTickRate                                 19318924                       # The number of ticks simulated per host second (ticks/s) ((Tick/Second))
hostMemory                                    1580460                       # Number of bytes of host memory used (Byte)
simInsts                                      1504318                       # Number of instructions simulated (Count)
simOps                                        2378095                       # Number of ops (including micro ops) simulated (Count)
hostInstRate                                    57741                       # Simulator instruction rate (inst/s) ((Count/Second))
hostOpRate                                      91280                       # Simulator op (including micro ops) rate (op/s) ((Count/Second))
board.cache_hierarchy.ruby_system.delayHistogram::bucket_size           64                       # delay histogram for all message (Unspecified)
board.cache_hierarchy.ruby_system.delayHistogram::max_bucket          639                       # delay histogram for all message (Unspecified)
board.cache_hierarchy.ruby_system.delayHistogram::samples       179995                       # delay histogram for all message (Unspecified)
board.cache_hierarchy.ruby_system.delayHistogram::mean    52.140721                       # delay histogram for all message (Unspecified)
board.cache_hierarchy.ruby_system.delayHistogram::stdev   115.289330                       # delay histogram for all message (Unspecified)
board.cache_hierarchy.ruby_system.delayHistogram |      148574     82.54%     82.54% |         465      0.26%     82.80% |         419      0.23%     83.03% |        8595      4.78%     87.81% |        6840      3.80%     91.61% |       15102      8.39%    100.00% |           0      0.00%    100.00% |           0      0.00%    100.00% |           0      0.00%    100.00% |           0      0.00%    100.00% # delay histogram for all message (Unspecified)
board.cache_hierarchy.ruby_system.delayHistogram::total       179995                       # delay histogram for all message (Unspecified)
board.cache_hierarchy.ruby_system.m_outstandReqHistSeqr::bucket_size            2                       (Unspecified)
board.cache_hierarchy.ruby_system.m_outstandReqHistSeqr::max_bucket           19                       (Unspecified)
board.cache_hierarchy.ruby_system.m_outstandReqHistSeqr::samples      1142726                       (Unspecified)
board.cache_hierarchy.ruby_system.m_outstandReqHistSeqr::mean     1.178168                       (Unspecified)
board.cache_hierarchy.ruby_system.m_outstandReqHistSeqr::gmean     1.128164                       (Unspecified)
board.cache_hierarchy.ruby_system.m_outstandReqHistSeqr::stdev     0.422387                       (Unspecified)
board.cache_hierarchy.ruby_system.m_outstandReqHistSeqr |      948458     83.00%     83.00% |      192358     16.83%     99.83% |        1590      0.14%     99.97% |         169      0.01%     99.99% |          68      0.01%     99.99% |          39      0.00%    100.00% |          16      0.00%    100.00% |          19      0.00%    100.00% |           9      0.00%    100.00% |           0      0.00%    100.00% (Unspecified)
board.cache_hierarchy.ruby_system.m_outstandReqHistSeqr::total      1142726                       (Unspecified)
board.cache_hierarchy.ruby_system.m_latencyHistSeqr::bucket_size          128                       (Unspecified)
board.cache_hierarchy.ruby_system.m_latencyHistSeqr::max_bucket         1279                       (Unspecified)
board.cache_hierarchy.ruby_system.m_latencyHistSeqr::samples      1142884                       (Unspecified)
board.cache_hierarchy.ruby_system.m_latencyHistSeqr::mean     5.475421                       (Unspecified)
board.cache_hierarchy.ruby_system.m_latencyHistSeqr::gmean     1.213542                       (Unspecified)
board.cache_hierarchy.ruby_system.m_latencyHistSeqr::stdev    24.357909                       (Unspecified)
board.cache_hierarchy.ruby_system.m_latencyHistSeqr |     1112426     97.33%     97.33% |       30451      2.66%    100.00% |           1      0.00%    100.00% |           0      0.00%    100.00% |           0      0.00%    100.00% |           3      0.00%    100.00% |           3      0.00%    100.00% |           0      0.00%    100.00% |           0      0.00%    100.00% |           0      0.00%    100.00% (Unspecified)
board.cache_hierarchy.ruby_system.m_latencyHistSeqr::total      1142884                       (Unspecified)
board.cache_hierarchy.ruby_system.m_hitLatencyHistSeqr::bucket_size           16                       (Unspecified)
board.cache_hierarchy.ruby_system.m_hitLatencyHistSeqr::max_bucket          159                       (Unspecified)
board.cache_hierarchy.ruby_system.m_hitLatencyHistSeqr::samples      1091047                       (Unspecified)
board.cache_hierarchy.ruby_system.m_hitLatencyHistSeqr::mean     1.000445                       (Unspecified)
board.cache_hierarchy.ruby_system.m_hitLatencyHistSeqr::gmean     1.000126                       (Unspecified)
board.cache_hierarchy.ruby_system.m_hitLatencyHistSeqr::stdev     0.152939                       (Unspecified)
board.cache_hierarchy.ruby_system.m_hitLatencyHistSeqr |     1091043    100.00%    100.00% |           0      0.00%    100.00% |           0      0.00%    100.00% |           1      0.00%    100.00% |           1      0.00%    100.00% |           1      0.00%    100.00% |           1      0.00%    100.00% |           0      0.00%    100.00% |           0      0.00%    100.00% |           0      0.00%    100.00% (Unspecified)
board.cache_hierarchy.ruby_system.m_hitLatencyHistSeqr::total      1091047                       (Unspecified)
board.cache_hierarchy.ruby_system.m_missLatencyHistSeqr::bucket_size          128                       (Unspecified)
board.cache_hierarchy.ruby_system.m_missLatencyHistSeqr::max_bucket         1279                       (Unspecified)
board.cache_hierarchy.ruby_system.m_missLatencyHistSeqr::samples        51837                       (Unspecified)
board.cache_hierarchy.ruby_system.m_missLatencyHistSeqr::mean    99.663136                       (Unspecified)
board.cache_hierarchy.ruby_system.m_missLatencyHistSeqr::gmean    71.131299                       (Unspecified)
board.cache_hierarchy.ruby_system.m_missLatencyHistSeqr::stdev    61.545076                       (Unspecified)
board.cache_hierarchy.ruby_system.m_missLatencyHistSeqr |       21379     41.24%     41.24% |       30451     58.74%     99.99% |           1      0.00%     99.99% |           0      0.00%     99.99% |           0      0.00%     99.99% |           3      0.01%     99.99% |           3      0.01%    100.00% |           0      0.00%    100.00% |           0      0.00%    100.00% |           0      0.00%    100.00% (Unspecified)
board.cache_hierarchy.ruby_system.m_missLatencyHistSeqr::total        51837                       (Unspecified)
board.cache_hierarchy.ruby_system.delayVCHist.vnet_0::bucket_size           64                       # delay histogram for vnet_0 (Unspecified)
board.cache_hierarchy.ruby_system.delayVCHist.vnet_0::max_bucket          639                       # delay histogram for vnet_0 (Unspecified)
board.cache_hierarchy.ruby_system.delayVCHist.vnet_0::samples        89591                       # delay histogram for vnet_0 (Unspecified)
board.cache_hierarchy.ruby_system.delayVCHist.vnet_0::mean   104.549575                       # delay histogram for vnet_0 (Unspecified)
board.cache_hierarchy.ruby_system.delayVCHist.vnet_0::stdev   145.717299                       # delay histogram for vnet_0 (Unspecified)
board.cache_hierarchy.ruby_system.delayVCHist.vnet_0 |       58170     64.93%     64.93% |         465      0.52%     65.45% |         419      0.47%     65.92% |        8595      9.59%     75.51% |        6840      7.63%     83.14% |       15102     16.86%    100.00% |           0      0.00%    100.00% |           0      0.00%    100.00% |           0      0.00%    100.00% |           0      0.00%    100.00% # delay histogram for vnet_0 (Unspecified)
board.cache_hierarchy.ruby_system.delayVCHist.vnet_0::total        89591                       # delay histogram for vnet_0 (Unspecified)
board.cache_hierarchy.ruby_system.delayVCHist.vnet_1::bucket_size            8                       # delay histogram for vnet_1 (Unspecified)
board.cache_hierarchy.ruby_system.delayVCHist.vnet_1::max_bucket           79                       # delay histogram for vnet_1 (Unspecified)
board.cache_hierarchy.ruby_system.delayVCHist.vnet_1::samples        55280                       # delay histogram for vnet_1 (Unspecified)
board.cache_hierarchy.ruby_system.delayVCHist.vnet_1::mean     0.332164                       # delay histogram for vnet_1 (Unspecified)
board.cache_hierarchy.ruby_system.delayVCHist.vnet_1::stdev     1.674766                       # delay histogram for vnet_1 (Unspecified)
board.cache_hierarchy.ruby_system.delayVCHist.vnet_1 |       53248     96.32%     96.32% |        1973      3.57%     99.89% |          45      0.08%     99.97% |          11      0.02%     99.99% |           2      0.00%    100.00% |           1      0.00%    100.00% |           0      0.00%    100.00% |           0      0.00%    100.00% |           0      0.00%    100.00% |           0      0.00%    100.00% # delay histogram for vnet_1 (Unspecified)
board.cache_hierarchy.ruby_system.delayVCHist.vnet_1::total        55280                       # delay histogram for vnet_1 (Unspecified)
board.cache_hierarchy.ruby_system.delayVCHist.vnet_2::bucket_size            1                       # delay histogram for vnet_2 (Unspecified)
board.cache_hierarchy.ruby_system.delayVCHist.vnet_2::max_bucket            9                       # delay histogram for vnet_2 (Unspecified)
board.cache_hierarchy.ruby_system.delayVCHist.vnet_2::samples        35124                       # delay histogram for vnet_2 (Unspecified)
board.cache_hierarchy.ruby_system.delayVCHist.vnet_2::mean     0.000171                       # delay histogram for vnet_2 (Unspecified)
board.cache_hierarchy.ruby_system.delayVCHist.vnet_2::stdev     0.018483                       # delay histogram for vnet_2 (Unspecified)
board.cache_hierarchy.ruby_system.delayVCHist.vnet_2 |       35121     99.99%     99.99% |           0      0.00%     99.99% |           3      0.01%    100.00% |           0      0.00%    100.00% |           0      0.00%    100.00% |           0      0.00%    100.00% |           0      0.00%    100.00% |           0      0.00%    100.00% |           0      0.00%    100.00% |           0      0.00%    100.00% # delay histogram for vnet_2 (Unspecified)
board.cache_hierarchy.ruby_system.delayVCHist.vnet_2::total        35124                       # delay histogram for vnet_2 (Unspecified)
board.cache_hierarchy.ruby_system.Directory_Controller.Fetch          769      0.00%      0.00% (Unspecified)
board.cache_hierarchy.ruby_system.Directory_Controller.Memory_Data          769      0.00%      0.00% (Unspecified)
board.cache_hierarchy.ruby_system.Directory_Controller.I.Fetch          769      0.00%      0.00% (Unspecified)
board.cache_hierarchy.ruby_system.Directory_Controller.IM.Memory_Data          769      0.00%      0.00% (Unspecified)
board.cache_hierarchy.ruby_system.L1Cache_Controller.Load |        7091      2.95%      2.95% |       29247     12.15%     15.10% |       29195     12.13%     27.23% |       29183     12.12%     39.35% |       29190     12.13%     51.48% |       29193     12.13%     63.61% |       29192     12.13%     75.74% |       29207     12.13%     87.87% |       29187     12.13%    100.00% (Unspecified)
board.cache_hierarchy.ruby_system.L1Cache_Controller.Load::total       240685                       (Unspecified)
board.cache_hierarchy.ruby_system.L1Cache_Controller.Ifetch |       11482      1.75%      1.75% |       80658     12.27%     14.02% |       80697     12.28%     26.30% |       80682     12.28%     38.58% |       80694     12.28%     50.86% |       80694     12.28%     63.14% |       80695     12.28%     75.42% |       80801     12.30%     87.72% |       80689     12.28%    100.00% (Unspecified)
board.cache_hierarchy.ruby_system.L1Cache_Controller.Ifetch::total       657092                       (Unspecified)
board.cache_hierarchy.ruby_system.L1Cache_Controller.Store |       11495      4.69%      4.69% |       29422     12.00%     16.69% |       29128     11.88%     28.58% |       29128     11.88%     40.46% |       29128     11.88%     52.34% |       29128     11.88%     64.23% |       29128     11.88%     76.11% |       29422     12.00%     88.12% |       29128     11.88%    100.00% (Unspecified)
board.cache_hierarchy.ruby_system.L1Cache_Controller.Store::total       245107                       (Unspecified)
board.cache_hierarchy.ruby_system.L1Cache_Controller.Inv |          44     36.36%     36.36% |          12      9.92%     46.28% |          12      9.92%     56.20% |          12      9.92%     66.12% |          10      8.26%     74.38% |          10      8.26%     82.64% |          12      9.92%     92.56% |           2      1.65%     94.21% |           7      5.79%    100.00% (Unspecified)
board.cache_hierarchy.ruby_system.L1Cache_Controller.Inv::total          121                       (Unspecified)
board.cache_hierarchy.ruby_system.L1Cache_Controller.L1_Replacement |         594      4.38%      4.38% |        1639     12.09%     16.47% |        1613     11.90%     28.37% |        1613     11.90%     40.27% |        1613     11.90%     52.17% |        1614     11.91%     64.08% |        1615     11.91%     75.99% |        1643     12.12%     88.12% |        1611     11.88%    100.00% (Unspecified)
board.cache_hierarchy.ruby_system.L1Cache_Controller.L1_Replacement::total        13555                       (Unspecified)
board.cache_hierarchy.ruby_system.L1Cache_Controller.Fwd_GETX |          22      0.07%      0.07% |        4041     12.33%     12.40% |        4107     12.53%     24.93% |        4109     12.54%     37.46% |        4109     12.54%     50.00% |        4109     12.54%     62.53% |        4109     12.54%     75.07% |        4099     12.51%     87.57% |        4073     12.43%    100.00% (Unspecified)
board.cache_hierarchy.ruby_system.L1Cache_Controller.Fwd_GETX::total        32778                       (Unspecified)
board.cache_hierarchy.ruby_system.L1Cache_Controller.Fwd_GETS |         391     17.57%     17.57% |        1766     79.37%     96.94% |          12      0.54%     97.48% |          11      0.49%     97.98% |          12      0.54%     98.52% |          10      0.45%     98.97% |          13      0.58%     99.55% |           3      0.13%     99.69% |           7      0.31%    100.00% (Unspecified)
board.cache_hierarchy.ruby_system.L1Cache_Controller.Fwd_GETS::total         2225                       (Unspecified)
board.cache_hierarchy.ruby_system.L1Cache_Controller.Data_Exclusive |          63      3.27%      3.27% |        1767     91.65%     94.92% |          16      0.83%     95.75% |          14      0.73%     96.47% |          14      0.73%     97.20% |          13      0.67%     97.87% |          15      0.78%     98.65% |          13      0.67%     99.33% |          13      0.67%    100.00% (Unspecified)
board.cache_hierarchy.ruby_system.L1Cache_Controller.Data_Exclusive::total         1928                       (Unspecified)
board.cache_hierarchy.ruby_system.L1Cache_Controller.DataS_fromL1 |          22      0.99%      0.99% |         320     14.38%     15.37% |        1772     79.64%     95.01% |          21      0.94%     95.96% |          19      0.85%     96.81% |          21      0.94%     97.75% |          16      0.72%     98.47% |          17      0.76%     99.24% |          17      0.76%    100.00% (Unspecified)
board.cache_hierarchy.ruby_system.L1Cache_Controller.DataS_fromL1::total         2225                       (Unspecified)
board.cache_hierarchy.ruby_system.L1Cache_Controller.Data_all_Acks |         525      1.10%      1.10% |        4278      8.99%     10.10% |        4600      9.67%     19.76% |        6355     13.36%     33.12% |        6354     13.36%     46.48% |        6354     13.36%     59.83% |        6361     13.37%     73.20% |        6415     13.48%     86.69% |        6333     13.31%    100.00% (Unspecified)
board.cache_hierarchy.ruby_system.L1Cache_Controller.Data_all_Acks::total        47575                       (Unspecified)
board.cache_hierarchy.ruby_system.L1Cache_Controller.Ack |          15     12.40%     12.40% |           9      7.44%     19.83% |          13     10.74%     30.58% |          12      9.92%     40.50% |          13     10.74%     51.24% |          13     10.74%     61.98% |          14     11.57%     73.55% |          18     14.88%     88.43% |          14     11.57%    100.00% (Unspecified)
board.cache_hierarchy.ruby_system.L1Cache_Controller.Ack::total          121                       (Unspecified)
board.cache_hierarchy.ruby_system.L1Cache_Controller.Ack_all |          15     13.76%     13.76% |           9      8.26%     22.02% |          12     11.01%     33.03% |          12     11.01%     44.04% |          13     11.93%     55.96% |          13     11.93%     67.89% |          12     11.01%     78.90% |          11     10.09%     88.99% |          12     11.01%    100.00% (Unspecified)
board.cache_hierarchy.ruby_system.L1Cache_Controller.Ack_all::total          109                       (Unspecified)
board.cache_hierarchy.ruby_system.L1Cache_Controller.WB_Ack |         217     66.16%     66.16% |          13      3.96%     70.12% |          14      4.27%     74.39% |          14      4.27%     78.66% |          14      4.27%     82.93% |          14      4.27%     87.20% |          14      4.27%     91.46% |          14      4.27%     95.73% |          14      4.27%    100.00% (Unspecified)
board.cache_hierarchy.ruby_system.L1Cache_Controller.WB_Ack::total          328                       (Unspecified)
board.cache_hierarchy.ruby_system.L1Cache_Controller.NP.Load |          79      0.47%      0.47% |        2090     12.41%     12.88% |        2096     12.44%     25.32% |        2097     12.45%     37.77% |        2097     12.45%     50.22% |        2098     12.45%     62.67% |        2100     12.47%     75.14% |        2093     12.43%     87.56% |        2095     12.44%    100.00% (Unspecified)
board.cache_hierarchy.ruby_system.L1Cache_Controller.NP.Load::total        16845                       (Unspecified)
board.cache_hierarchy.ruby_system.L1Cache_Controller.NP.Ifetch |         311     18.30%     18.30% |         187     11.01%     29.31% |         170     10.01%     39.32% |         169      9.95%     49.26% |         167      9.83%     59.09% |         167      9.83%     68.92% |         168      9.89%     78.81% |         192     11.30%     90.11% |         168      9.89%    100.00% (Unspecified)
board.cache_hierarchy.ruby_system.L1Cache_Controller.NP.Ifetch::total         1699                       (Unspecified)
board.cache_hierarchy.ruby_system.L1Cache_Controller.NP.Store |         204     41.38%     41.38% |          61     12.37%     53.75% |          28      5.68%     59.43% |          28      5.68%     65.11% |          28      5.68%     70.79% |          28      5.68%     76.47% |          27      5.48%     81.95% |          61     12.37%     94.32% |          28      5.68%    100.00% (Unspecified)
board.cache_hierarchy.ruby_system.L1Cache_Controller.NP.Store::total          493                       (Unspecified)
board.cache_hierarchy.ruby_system.L1Cache_Controller.NP.Inv |           3    100.00%    100.00% |           0      0.00%    100.00% |           0      0.00%    100.00% |           0      0.00%    100.00% |           0      0.00%    100.00% |           0      0.00%    100.00% |           0      0.00%    100.00% |           0      0.00%    100.00% |           0      0.00%    100.00% (Unspecified)
board.cache_hierarchy.ruby_system.L1Cache_Controller.NP.Inv::total            3                       (Unspecified)
board.cache_hierarchy.ruby_system.L1Cache_Controller.I.Load |          15     75.00%     75.00% |           0      0.00%     75.00% |           1      5.00%     80.00% |           1      5.00%     85.00% |           0      0.00%     85.00% |           0      0.00%     85.00% |           0      0.00%     85.00% |           3     15.00%    100.00% |           0      0.00%    100.00% (Unspecified)
board.cache_hierarchy.ruby_system.L1Cache_Controller.I.Load::total           20                       (Unspecified)
board.cache_hierarchy.ruby_system.L1Cache_Controller.I.Store |           1      0.00%      0.00% |        4027     12.33%     12.33% |        4093     12.53%     24.86% |        4095     12.53%     37.39% |        4095     12.53%     49.93% |        4095     12.53%     62.46% |        4097     12.54%     75.00% |        4096     12.54%     87.54% |        4072     12.46%    100.00% (Unspecified)
board.cache_hierarchy.ruby_system.L1Cache_Controller.I.Store::total        32671                       (Unspecified)
board.cache_hierarchy.ruby_system.L1Cache_Controller.I.L1_Replacement |          25     86.21%     86.21% |           2      6.90%     93.10% |           1      3.45%     96.55% |           1      3.45%    100.00% |           0      0.00%    100.00% |           0      0.00%    100.00% |           0      0.00%    100.00% |           0      0.00%    100.00% |           0      0.00%    100.00% (Unspecified)
board.cache_hierarchy.ruby_system.L1Cache_Controller.I.L1_Replacement::total           29                       (Unspecified)
board.cache_hierarchy.ruby_system.L1Cache_Controller.S.Load |         115      0.75%      0.75% |         363      2.37%      3.12% |        2117     13.80%     16.91% |        2113     13.77%     30.68% |        2118     13.80%     44.49% |        2120     13.82%     58.30% |        2139     13.94%     72.24% |        2145     13.98%     86.22% |        2114     13.78%    100.00% (Unspecified)
board.cache_hierarchy.ruby_system.L1Cache_Controller.S.Load::total        15344                       (Unspecified)
board.cache_hierarchy.ruby_system.L1Cache_Controller.S.Ifetch |       11171      1.70%      1.70% |       80471     12.28%     13.98% |       80527     12.29%     26.27% |       80513     12.28%     38.55% |       80527     12.29%     50.84% |       80527     12.29%     63.13% |       80527     12.29%     75.41% |       80609     12.30%     87.71% |       80521     12.29%    100.00% (Unspecified)
board.cache_hierarchy.ruby_system.L1Cache_Controller.S.Ifetch::total       655393                       (Unspecified)
board.cache_hierarchy.ruby_system.L1Cache_Controller.S.Store |          15     13.76%     13.76% |           9      8.26%     22.02% |          12     11.01%     33.03% |          12     11.01%     44.04% |          13     11.93%     55.96% |          13     11.93%     67.89% |          12     11.01%     78.90% |          11     10.09%     88.99% |          12     11.01%    100.00% (Unspecified)
board.cache_hierarchy.ruby_system.L1Cache_Controller.S.Store::total          109                       (Unspecified)
board.cache_hierarchy.ruby_system.L1Cache_Controller.S.Inv |          41     34.75%     34.75% |          12     10.17%     44.92% |          12     10.17%     55.08% |          12     10.17%     65.25% |          10      8.47%     73.73% |          10      8.47%     82.20% |          12     10.17%     92.37% |           2      1.69%     94.07% |           7      5.93%    100.00% (Unspecified)
board.cache_hierarchy.ruby_system.L1Cache_Controller.S.Inv::total          118                       (Unspecified)
board.cache_hierarchy.ruby_system.L1Cache_Controller.S.L1_Replacement |         352      2.67%      2.67% |        1624     12.30%     14.97% |        1598     12.11%     27.08% |        1598     12.11%     39.19% |        1599     12.12%     51.30% |        1600     12.12%     63.43% |        1601     12.13%     75.56% |        1629     12.34%     87.90% |        1597     12.10%    100.00% (Unspecified)
board.cache_hierarchy.ruby_system.L1Cache_Controller.S.L1_Replacement::total        13198                       (Unspecified)
board.cache_hierarchy.ruby_system.L1Cache_Controller.E.Load |         908     33.35%     33.35% |        1757     64.52%     97.87% |           8      0.29%     98.16% |           8      0.29%     98.46% |           8      0.29%     98.75% |           8      0.29%     99.05% |           8      0.29%     99.34% |          10      0.37%     99.71% |           8      0.29%    100.00% (Unspecified)
board.cache_hierarchy.ruby_system.L1Cache_Controller.E.Load::total         2723                       (Unspecified)
board.cache_hierarchy.ruby_system.L1Cache_Controller.E.Store |          27     28.12%     28.12% |           9      9.38%     37.50% |           9      9.38%     46.88% |           9      9.38%     56.25% |           8      8.33%     64.58% |           8      8.33%     72.92% |           9      9.38%     82.29% |           8      8.33%     90.63% |           9      9.38%    100.00% (Unspecified)
board.cache_hierarchy.ruby_system.L1Cache_Controller.E.Store::total           96                       (Unspecified)
board.cache_hierarchy.ruby_system.L1Cache_Controller.E.L1_Replacement |           4     33.33%     33.33% |           1      8.33%     41.67% |           1      8.33%     50.00% |           1      8.33%     58.33% |           1      8.33%     66.67% |           1      8.33%     75.00% |           1      8.33%     83.33% |           1      8.33%     91.67% |           1      8.33%    100.00% (Unspecified)
board.cache_hierarchy.ruby_system.L1Cache_Controller.E.L1_Replacement::total           12                       (Unspecified)
board.cache_hierarchy.ruby_system.L1Cache_Controller.E.Fwd_GETS |           8      0.45%      0.45% |        1754     99.04%     99.49% |           2      0.11%     99.60% |           1      0.06%     99.66% |           2      0.11%     99.77% |           1      0.06%     99.83% |           2      0.11%     99.94% |           1      0.06%    100.00% |           0      0.00%    100.00% (Unspecified)
board.cache_hierarchy.ruby_system.L1Cache_Controller.E.Fwd_GETS::total         1771                       (Unspecified)
board.cache_hierarchy.ruby_system.L1Cache_Controller.M.Load |        5974      2.90%      2.90% |       25037     12.17%     15.07% |       24973     12.14%     27.21% |       24964     12.13%     39.34% |       24967     12.13%     51.48% |       24967     12.13%     63.61% |       24945     12.12%     75.73% |       24956     12.13%     87.86% |       24970     12.14%    100.00% (Unspecified)
board.cache_hierarchy.ruby_system.L1Cache_Controller.M.Load::total       205753                       (Unspecified)
board.cache_hierarchy.ruby_system.L1Cache_Controller.M.Store |       11248      5.31%      5.31% |       25316     11.96%     17.27% |       24986     11.80%     29.07% |       24984     11.80%     40.87% |       24984     11.80%     52.67% |       24984     11.80%     64.47% |       24983     11.80%     76.27% |       25246     11.92%     88.19% |       25007     11.81%    100.00% (Unspecified)
board.cache_hierarchy.ruby_system.L1Cache_Controller.M.Store::total       211738                       (Unspecified)
board.cache_hierarchy.ruby_system.L1Cache_Controller.M.L1_Replacement |         213     67.41%     67.41% |          12      3.80%     71.20% |          13      4.11%     75.32% |          13      4.11%     79.43% |          13      4.11%     83.54% |          13      4.11%     87.66% |          13      4.11%     91.77% |          13      4.11%     95.89% |          13      4.11%    100.00% (Unspecified)
board.cache_hierarchy.ruby_system.L1Cache_Controller.M.L1_Replacement::total          316                       (Unspecified)
board.cache_hierarchy.ruby_system.L1Cache_Controller.M.Fwd_GETX |          22      0.07%      0.07% |        4041     12.33%     12.40% |        4107     12.53%     24.93% |        4109     12.54%     37.46% |        4109     12.54%     50.00% |        4109     12.54%     62.53% |        4109     12.54%     75.07% |        4099     12.51%     87.57% |        4073     12.43%    100.00% (Unspecified)
board.cache_hierarchy.ruby_system.L1Cache_Controller.M.Fwd_GETX::total        32778                       (Unspecified)
board.cache_hierarchy.ruby_system.L1Cache_Controller.M.Fwd_GETS |         383     84.36%     84.36% |          12      2.64%     87.00% |          10      2.20%     89.21% |          10      2.20%     91.41% |          10      2.20%     93.61% |           9      1.98%     95.59% |          11      2.42%     98.02% |           2      0.44%     98.46% |           7      1.54%    100.00% (Unspecified)
board.cache_hierarchy.ruby_system.L1Cache_Controller.M.Fwd_GETS::total          454                       (Unspecified)
board.cache_hierarchy.ruby_system.L1Cache_Controller.IS.Data_Exclusive |          63      3.27%      3.27% |        1767     91.65%     94.92% |          16      0.83%     95.75% |          14      0.73%     96.47% |          14      0.73%     97.20% |          13      0.67%     97.87% |          15      0.78%     98.65% |          13      0.67%     99.33% |          13      0.67%    100.00% (Unspecified)
board.cache_hierarchy.ruby_system.L1Cache_Controller.IS.Data_Exclusive::total         1928                       (Unspecified)
board.cache_hierarchy.ruby_system.L1Cache_Controller.IS.DataS_fromL1 |          22      0.99%      0.99% |         320     14.38%     15.37% |        1772     79.64%     95.01% |          21      0.94%     95.96% |          19      0.85%     96.81% |          21      0.94%     97.75% |          16      0.72%     98.47% |          17      0.76%     99.24% |          17      0.76%    100.00% (Unspecified)
board.cache_hierarchy.ruby_system.L1Cache_Controller.IS.DataS_fromL1::total         2225                       (Unspecified)
board.cache_hierarchy.ruby_system.L1Cache_Controller.IS.Data_all_Acks |         320      2.22%      2.22% |         190      1.32%      3.54% |         479      3.32%      6.86% |        2232     15.49%     22.35% |        2231     15.48%     37.83% |        2231     15.48%     53.31% |        2237     15.52%     68.84% |        2258     15.67%     84.50% |        2233     15.50%    100.00% (Unspecified)
board.cache_hierarchy.ruby_system.L1Cache_Controller.IS.Data_all_Acks::total        14411                       (Unspecified)
board.cache_hierarchy.ruby_system.L1Cache_Controller.IM.Data_all_Acks |         205      0.62%      0.62% |        4088     12.33%     12.94% |        4121     12.43%     25.37% |        4123     12.43%     37.80% |        4123     12.43%     50.24% |        4123     12.43%     62.67% |        4124     12.44%     75.10% |        4157     12.53%     87.64% |        4100     12.36%    100.00% (Unspecified)
board.cache_hierarchy.ruby_system.L1Cache_Controller.IM.Data_all_Acks::total        33164                       (Unspecified)
board.cache_hierarchy.ruby_system.L1Cache_Controller.SM.Ack |          15     12.40%     12.40% |           9      7.44%     19.83% |          13     10.74%     30.58% |          12      9.92%     40.50% |          13     10.74%     51.24% |          13     10.74%     61.98% |          14     11.57%     73.55% |          18     14.88%     88.43% |          14     11.57%    100.00% (Unspecified)
board.cache_hierarchy.ruby_system.L1Cache_Controller.SM.Ack::total          121                       (Unspecified)
board.cache_hierarchy.ruby_system.L1Cache_Controller.SM.Ack_all |          15     13.76%     13.76% |           9      8.26%     22.02% |          12     11.01%     33.03% |          12     11.01%     44.04% |          13     11.93%     55.96% |          13     11.93%     67.89% |          12     11.01%     78.90% |          11     10.09%     88.99% |          12     11.01%    100.00% (Unspecified)
board.cache_hierarchy.ruby_system.L1Cache_Controller.SM.Ack_all::total          109                       (Unspecified)
board.cache_hierarchy.ruby_system.L1Cache_Controller.M_I.WB_Ack |         217     66.16%     66.16% |          13      3.96%     70.12% |          14      4.27%     74.39% |          14      4.27%     78.66% |          14      4.27%     82.93% |          14      4.27%     87.20% |          14      4.27%     91.46% |          14      4.27%     95.73% |          14      4.27%    100.00% (Unspecified)
board.cache_hierarchy.ruby_system.L1Cache_Controller.M_I.WB_Ack::total          328                       (Unspecified)
board.cache_hierarchy.ruby_system.L2Cache_Controller.L1_GET_INSTR |         213     12.54%     12.54% |         185     10.89%     23.43% |         178     10.48%     33.90% |         202     11.89%     45.79% |         219     12.89%     58.68% |         229     13.48%     72.16% |         250     14.71%     86.87% |         223     13.13%    100.00% (Unspecified)
board.cache_hierarchy.ruby_system.L2Cache_Controller.L1_GET_INSTR::total         1699                       (Unspecified)
board.cache_hierarchy.ruby_system.L2Cache_Controller.L1_GETS |        2087     12.37%     12.37% |        2139     12.68%     25.06% |        2124     12.59%     37.65% |        2092     12.40%     50.06% |        2109     12.51%     62.56% |        2108     12.50%     75.06% |        2113     12.53%     87.59% |        2093     12.41%    100.00% (Unspecified)
board.cache_hierarchy.ruby_system.L2Cache_Controller.L1_GETS::total        16865                       (Unspecified)
board.cache_hierarchy.ruby_system.L2Cache_Controller.L1_GETX |          65      0.04%      0.04% |          51      0.03%      0.07% |          52      0.03%      0.10% |          44      0.03%      0.12% |          72      0.04%      0.16% |          88      0.05%      0.21% |          62      0.04%      0.25% |      174163     99.75%    100.00% (Unspecified)
board.cache_hierarchy.ruby_system.L2Cache_Controller.L1_GETX::total       174597                       (Unspecified)
board.cache_hierarchy.ruby_system.L2Cache_Controller.L1_UPGRADE |           3      2.75%      2.75% |          27     24.77%     27.52% |          22     20.18%     47.71% |           7      6.42%     54.13% |          17     15.60%     69.72% |          17     15.60%     85.32% |          14     12.84%     98.17% |           2      1.83%    100.00% (Unspecified)
board.cache_hierarchy.ruby_system.L2Cache_Controller.L1_UPGRADE::total          109                       (Unspecified)
board.cache_hierarchy.ruby_system.L2Cache_Controller.L1_PUTX |          39     11.89%     11.89% |          44     13.41%     25.30% |          39     11.89%     37.20% |          34     10.37%     47.56% |          44     13.41%     60.98% |          55     16.77%     77.74% |          38     11.59%     89.33% |          35     10.67%    100.00% (Unspecified)
board.cache_hierarchy.ruby_system.L2Cache_Controller.L1_PUTX::total          328                       (Unspecified)
board.cache_hierarchy.ruby_system.L2Cache_Controller.Mem_Data |          89     11.57%     11.57% |          96     12.48%     24.06% |          89     11.57%     35.63% |          85     11.05%     46.68% |         105     13.65%     60.34% |         109     14.17%     74.51% |         100     13.00%     87.52% |          96     12.48%    100.00% (Unspecified)
board.cache_hierarchy.ruby_system.L2Cache_Controller.Mem_Data::total          769                       (Unspecified)
board.cache_hierarchy.ruby_system.L2Cache_Controller.WB_Data |          49     10.79%     10.79% |          83     18.28%     29.07% |          69     15.20%     44.27% |          50     11.01%     55.29% |          55     12.11%     67.40% |          58     12.78%     80.18% |          46     10.13%     90.31% |          44      9.69%    100.00% (Unspecified)
board.cache_hierarchy.ruby_system.L2Cache_Controller.WB_Data::total          454                       (Unspecified)
board.cache_hierarchy.ruby_system.L2Cache_Controller.WB_Data_clean |         213     12.03%     12.03% |         217     12.25%     24.28% |         222     12.54%     36.82% |         223     12.59%     49.41% |         221     12.48%     61.89% |         229     12.93%     74.82% |         229     12.93%     87.75% |         217     12.25%    100.00% (Unspecified)
board.cache_hierarchy.ruby_system.L2Cache_Controller.WB_Data_clean::total         1771                       (Unspecified)
board.cache_hierarchy.ruby_system.L2Cache_Controller.Unblock |         262     11.78%     11.78% |         300     13.48%     25.26% |         291     13.08%     38.34% |         273     12.27%     50.61% |         276     12.40%     63.01% |         287     12.90%     75.91% |         275     12.36%     88.27% |         261     11.73%    100.00% (Unspecified)
board.cache_hierarchy.ruby_system.L2Cache_Controller.Unblock::total         2225                       (Unspecified)
board.cache_hierarchy.ruby_system.L2Cache_Controller.Exclusive_Unblock |         303      0.86%      0.86% |         322      0.91%      1.78% |         311      0.88%      2.66% |         286      0.81%      3.47% |         336      0.95%      4.43% |         349      0.99%      5.42% |         322      0.91%      6.33% |       32972     93.67%    100.00% (Unspecified)
board.cache_hierarchy.ruby_system.L2Cache_Controller.Exclusive_Unblock::total        35201                       (Unspecified)
board.cache_hierarchy.ruby_system.L2Cache_Controller.NP.L1_GET_INSTR |          44     11.67%     11.67% |          44     11.67%     23.34% |          45     11.94%     35.28% |          50     13.26%     48.54% |          52     13.79%     62.33% |          48     12.73%     75.07% |          48     12.73%     87.80% |          46     12.20%    100.00% (Unspecified)
board.cache_hierarchy.ruby_system.L2Cache_Controller.NP.L1_GET_INSTR::total          377                       (Unspecified)
board.cache_hierarchy.ruby_system.L2Cache_Controller.NP.L1_GETS |           1      2.56%      2.56% |          11     28.21%     30.77% |           2      5.13%     35.90% |           0      0.00%     35.90% |           9     23.08%     58.97% |           2      5.13%     64.10% |           4     10.26%     74.36% |          10     25.64%    100.00% (Unspecified)
board.cache_hierarchy.ruby_system.L2Cache_Controller.NP.L1_GETS::total           39                       (Unspecified)
board.cache_hierarchy.ruby_system.L2Cache_Controller.NP.L1_GETX |          44     12.46%     12.46% |          41     11.61%     24.08% |          42     11.90%     35.98% |          35      9.92%     45.89% |          44     12.46%     58.36% |          59     16.71%     75.07% |          48     13.60%     88.67% |          40     11.33%    100.00% (Unspecified)
board.cache_hierarchy.ruby_system.L2Cache_Controller.NP.L1_GETX::total          353                       (Unspecified)
board.cache_hierarchy.ruby_system.L2Cache_Controller.SS.L1_GET_INSTR |         169     12.80%     12.80% |         140     10.61%     23.41% |         133     10.08%     33.48% |         152     11.52%     45.00% |         167     12.65%     57.65% |         181     13.71%     71.36% |         201     15.23%     86.59% |         177     13.41%    100.00% (Unspecified)
board.cache_hierarchy.ruby_system.L2Cache_Controller.SS.L1_GET_INSTR::total         1320                       (Unspecified)
board.cache_hierarchy.ruby_system.L2Cache_Controller.SS.L1_GETS |        1590     12.51%     12.51% |        1595     12.55%     25.06% |        1596     12.56%     37.61% |        1584     12.46%     50.07% |        1586     12.48%     62.55% |        1577     12.41%     74.95% |        1592     12.52%     87.48% |        1592     12.52%    100.00% (Unspecified)
board.cache_hierarchy.ruby_system.L2Cache_Controller.SS.L1_GETS::total        12712                       (Unspecified)
board.cache_hierarchy.ruby_system.L2Cache_Controller.SS.L1_UPGRADE |           3      2.75%      2.75% |          27     24.77%     27.52% |          22     20.18%     47.71% |           7      6.42%     54.13% |          17     15.60%     69.72% |          17     15.60%     85.32% |          14     12.84%     98.17% |           2      1.83%    100.00% (Unspecified)
board.cache_hierarchy.ruby_system.L2Cache_Controller.SS.L1_UPGRADE::total          109                       (Unspecified)
board.cache_hierarchy.ruby_system.L2Cache_Controller.M.L1_GETS |         234     12.39%     12.39% |         233     12.33%     24.72% |         235     12.44%     37.16% |         235     12.44%     49.60% |         238     12.60%     62.20% |         242     12.81%     75.01% |         242     12.81%     87.82% |         230     12.18%    100.00% (Unspecified)
board.cache_hierarchy.ruby_system.L2Cache_Controller.M.L1_GETS::total         1889                       (Unspecified)
board.cache_hierarchy.ruby_system.L2Cache_Controller.M.L1_GETX |           1      3.03%      3.03% |           1      3.03%      6.06% |           2      6.06%     12.12% |           3      9.09%     21.21% |          12     36.36%     57.58% |           9     27.27%     84.85% |           2      6.06%     90.91% |           3      9.09%    100.00% (Unspecified)
board.cache_hierarchy.ruby_system.L2Cache_Controller.M.L1_GETX::total           33                       (Unspecified)
board.cache_hierarchy.ruby_system.L2Cache_Controller.MT.L1_GETS |         262     11.78%     11.78% |         300     13.48%     25.26% |         291     13.08%     38.34% |         273     12.27%     50.61% |         276     12.40%     63.01% |         287     12.90%     75.91% |         275     12.36%     88.27% |         261     11.73%    100.00% (Unspecified)
board.cache_hierarchy.ruby_system.L2Cache_Controller.MT.L1_GETS::total         2225                       (Unspecified)
board.cache_hierarchy.ruby_system.L2Cache_Controller.MT.L1_GETX |          20      0.06%      0.06% |           9      0.03%      0.09% |           8      0.02%      0.11% |           6      0.02%      0.13% |          16      0.05%      0.18% |          20      0.06%      0.24% |          12      0.04%      0.28% |       32687     99.72%    100.00% (Unspecified)
board.cache_hierarchy.ruby_system.L2Cache_Controller.MT.L1_GETX::total        32778                       (Unspecified)
board.cache_hierarchy.ruby_system.L2Cache_Controller.MT.L1_PUTX |          39     11.89%     11.89% |          44     13.41%     25.30% |          39     11.89%     37.20% |          34     10.37%     47.56% |          44     13.41%     60.98% |          55     16.77%     77.74% |          38     11.59%     89.33% |          35     10.67%    100.00% (Unspecified)
board.cache_hierarchy.ruby_system.L2Cache_Controller.MT.L1_PUTX::total          328                       (Unspecified)
board.cache_hierarchy.ruby_system.L2Cache_Controller.ISS.Mem_Data |           1      2.56%      2.56% |          11     28.21%     30.77% |           2      5.13%     35.90% |           0      0.00%     35.90% |           9     23.08%     58.97% |           2      5.13%     64.10% |           4     10.26%     74.36% |          10     25.64%    100.00% (Unspecified)
board.cache_hierarchy.ruby_system.L2Cache_Controller.ISS.Mem_Data::total           39                       (Unspecified)
board.cache_hierarchy.ruby_system.L2Cache_Controller.IS.L1_GET_INSTR |           0      0.00%      0.00% |           1     50.00%     50.00% |           0      0.00%     50.00% |           0      0.00%     50.00% |           0      0.00%     50.00% |           0      0.00%     50.00% |           1     50.00%    100.00% |           0      0.00%    100.00% (Unspecified)
board.cache_hierarchy.ruby_system.L2Cache_Controller.IS.L1_GET_INSTR::total            2                       (Unspecified)
board.cache_hierarchy.ruby_system.L2Cache_Controller.IS.Mem_Data |          44     11.67%     11.67% |          44     11.67%     23.34% |          45     11.94%     35.28% |          50     13.26%     48.54% |          52     13.79%     62.33% |          48     12.73%     75.07% |          48     12.73%     87.80% |          46     12.20%    100.00% (Unspecified)
board.cache_hierarchy.ruby_system.L2Cache_Controller.IS.Mem_Data::total          377                       (Unspecified)
board.cache_hierarchy.ruby_system.L2Cache_Controller.IM.Mem_Data |          44     12.46%     12.46% |          41     11.61%     24.08% |          42     11.90%     35.98% |          35      9.92%     45.89% |          44     12.46%     58.36% |          59     16.71%     75.07% |          48     13.60%     88.67% |          40     11.33%    100.00% (Unspecified)
board.cache_hierarchy.ruby_system.L2Cache_Controller.IM.Mem_Data::total          353                       (Unspecified)
board.cache_hierarchy.ruby_system.L2Cache_Controller.SS_MB.Exclusive_Unblock |           3      2.75%      2.75% |          27     24.77%     27.52% |          22     20.18%     47.71% |           7      6.42%     54.13% |          17     15.60%     69.72% |          17     15.60%     85.32% |          14     12.84%     98.17% |           2      1.83%    100.00% (Unspecified)
board.cache_hierarchy.ruby_system.L2Cache_Controller.SS_MB.Exclusive_Unblock::total          109                       (Unspecified)
board.cache_hierarchy.ruby_system.L2Cache_Controller.MT_MB.L1_GETX |           0      0.00%      0.00% |           0      0.00%      0.00% |           0      0.00%      0.00% |           0      0.00%      0.00% |           0      0.00%      0.00% |           0      0.00%      0.00% |           0      0.00%      0.00% |      141433    100.00%    100.00% (Unspecified)
board.cache_hierarchy.ruby_system.L2Cache_Controller.MT_MB.L1_GETX::total       141433                       (Unspecified)
board.cache_hierarchy.ruby_system.L2Cache_Controller.MT_MB.Exclusive_Unblock |         300      0.85%      0.85% |         295      0.84%      1.70% |         289      0.82%      2.52% |         279      0.80%      3.31% |         319      0.91%      4.22% |         332      0.95%      5.17% |         308      0.88%      6.05% |       32970     93.95%    100.00% (Unspecified)
board.cache_hierarchy.ruby_system.L2Cache_Controller.MT_MB.Exclusive_Unblock::total        35092                       (Unspecified)
board.cache_hierarchy.ruby_system.L2Cache_Controller.MT_IIB.WB_Data |          49     11.09%     11.09% |          75     16.97%     28.05% |          66     14.93%     42.99% |          49     11.09%     54.07% |          55     12.44%     66.52% |          58     13.12%     79.64% |          46     10.41%     90.05% |          44      9.95%    100.00% (Unspecified)
board.cache_hierarchy.ruby_system.L2Cache_Controller.MT_IIB.WB_Data::total          442                       (Unspecified)
board.cache_hierarchy.ruby_system.L2Cache_Controller.MT_IIB.WB_Data_clean |         213     12.07%     12.07% |         216     12.24%     24.32% |         222     12.59%     36.90% |         217     12.30%     49.21% |         221     12.53%     61.73% |         229     12.98%     74.72% |         229     12.98%     87.70% |         217     12.30%    100.00% (Unspecified)
board.cache_hierarchy.ruby_system.L2Cache_Controller.MT_IIB.WB_Data_clean::total         1764                       (Unspecified)
board.cache_hierarchy.ruby_system.L2Cache_Controller.MT_IIB.Unblock |           0      0.00%      0.00% |           9     47.37%     47.37% |           3     15.79%     63.16% |           7     36.84%    100.00% |           0      0.00%    100.00% |           0      0.00%    100.00% |           0      0.00%    100.00% |           0      0.00%    100.00% (Unspecified)
board.cache_hierarchy.ruby_system.L2Cache_Controller.MT_IIB.Unblock::total           19                       (Unspecified)
board.cache_hierarchy.ruby_system.L2Cache_Controller.MT_IB.WB_Data |           0      0.00%      0.00% |           8     66.67%     66.67% |           3     25.00%     91.67% |           1      8.33%    100.00% |           0      0.00%    100.00% |           0      0.00%    100.00% |           0      0.00%    100.00% |           0      0.00%    100.00% (Unspecified)
board.cache_hierarchy.ruby_system.L2Cache_Controller.MT_IB.WB_Data::total           12                       (Unspecified)
board.cache_hierarchy.ruby_system.L2Cache_Controller.MT_IB.WB_Data_clean |           0      0.00%      0.00% |           1     14.29%     14.29% |           0      0.00%     14.29% |           6     85.71%    100.00% |           0      0.00%    100.00% |           0      0.00%    100.00% |           0      0.00%    100.00% |           0      0.00%    100.00% (Unspecified)
board.cache_hierarchy.ruby_system.L2Cache_Controller.MT_IB.WB_Data_clean::total            7                       (Unspecified)
board.cache_hierarchy.ruby_system.L2Cache_Controller.MT_SB.Unblock |         262     11.88%     11.88% |         291     13.19%     25.07% |         288     13.06%     38.12% |         266     12.06%     50.18% |         276     12.51%     62.69% |         287     13.01%     75.70% |         275     12.47%     88.17% |         261     11.83%    100.00% (Unspecified)
board.cache_hierarchy.ruby_system.L2Cache_Controller.MT_SB.Unblock::total         2206                       (Unspecified)
board.cache_hierarchy.ruby_system.RequestType.LD.latency_hist_seqr::bucket_size           32                       (Unspecified)
board.cache_hierarchy.ruby_system.RequestType.LD.latency_hist_seqr::max_bucket          319                       (Unspecified)
board.cache_hierarchy.ruby_system.RequestType.LD.latency_hist_seqr::samples       240685                       (Unspecified)
board.cache_hierarchy.ruby_system.RequestType.LD.latency_hist_seqr::mean     2.453356                       (Unspecified)
board.cache_hierarchy.ruby_system.RequestType.LD.latency_hist_seqr::gmean     1.238358                       (Unspecified)
board.cache_hierarchy.ruby_system.RequestType.LD.latency_hist_seqr::stdev     5.582131                       (Unspecified)
board.cache_hierarchy.ruby_system.RequestType.LD.latency_hist_seqr |      239264     99.41%     99.41% |        1382      0.57%     99.98% |           0      0.00%     99.98% |          21      0.01%     99.99% |          13      0.01%    100.00% |           5      0.00%    100.00% |           0      0.00%    100.00% |           0      0.00%    100.00% |           0      0.00%    100.00% |           0      0.00%    100.00% (Unspecified)
board.cache_hierarchy.ruby_system.RequestType.LD.latency_hist_seqr::total       240685                       (Unspecified)
board.cache_hierarchy.ruby_system.RequestType.LD.hit_latency_hist_seqr::bucket_size            1                       (Unspecified)
board.cache_hierarchy.ruby_system.RequestType.LD.hit_latency_hist_seqr::max_bucket            9                       (Unspecified)
board.cache_hierarchy.ruby_system.RequestType.LD.hit_latency_hist_seqr::samples       223820                       (Unspecified)
board.cache_hierarchy.ruby_system.RequestType.LD.hit_latency_hist_seqr::mean     1.000018                       (Unspecified)
board.cache_hierarchy.ruby_system.RequestType.LD.hit_latency_hist_seqr::gmean     1.000012                       (Unspecified)
board.cache_hierarchy.ruby_system.RequestType.LD.hit_latency_hist_seqr::stdev     0.004227                       (Unspecified)
board.cache_hierarchy.ruby_system.RequestType.LD.hit_latency_hist_seqr |           0      0.00%      0.00% |      223816    100.00%    100.00% |           4      0.00%    100.00% |           0      0.00%    100.00% |           0      0.00%    100.00% |           0      0.00%    100.00% |           0      0.00%    100.00% |           0      0.00%    100.00% |           0      0.00%    100.00% |           0      0.00%    100.00% (Unspecified)
board.cache_hierarchy.ruby_system.RequestType.LD.hit_latency_hist_seqr::total       223820                       (Unspecified)
board.cache_hierarchy.ruby_system.RequestType.LD.miss_latency_hist_seqr::bucket_size           32                       (Unspecified)
board.cache_hierarchy.ruby_system.RequestType.LD.miss_latency_hist_seqr::max_bucket          319                       (Unspecified)
board.cache_hierarchy.ruby_system.RequestType.LD.miss_latency_hist_seqr::samples        16865                       (Unspecified)
board.cache_hierarchy.ruby_system.RequestType.LD.miss_latency_hist_seqr::mean    21.741002                       (Unspecified)
board.cache_hierarchy.ruby_system.RequestType.LD.miss_latency_hist_seqr::gmean    21.133076                       (Unspecified)
board.cache_hierarchy.ruby_system.RequestType.LD.miss_latency_hist_seqr::stdev     6.682168                       (Unspecified)
board.cache_hierarchy.ruby_system.RequestType.LD.miss_latency_hist_seqr |       15444     91.57%     91.57% |        1382      8.19%     99.77% |           0      0.00%     99.77% |          21      0.12%     99.89% |          13      0.08%     99.97% |           5      0.03%    100.00% |           0      0.00%    100.00% |           0      0.00%    100.00% |           0      0.00%    100.00% |           0      0.00%    100.00% (Unspecified)
board.cache_hierarchy.ruby_system.RequestType.LD.miss_latency_hist_seqr::total        16865                       (Unspecified)
board.cache_hierarchy.ruby_system.RequestType.ST.latency_hist_seqr::bucket_size          128                       (Unspecified)
board.cache_hierarchy.ruby_system.RequestType.ST.latency_hist_seqr::max_bucket         1279                       (Unspecified)
board.cache_hierarchy.ruby_system.RequestType.ST.latency_hist_seqr::samples       178596                       (Unspecified)
board.cache_hierarchy.ruby_system.RequestType.ST.latency_hist_seqr::mean     1.246584                       (Unspecified)
board.cache_hierarchy.ruby_system.RequestType.ST.latency_hist_seqr::gmean     1.012949                       (Unspecified)
board.cache_hierarchy.ruby_system.RequestType.ST.latency_hist_seqr::stdev     5.508414                       (Unspecified)
board.cache_hierarchy.ruby_system.RequestType.ST.latency_hist_seqr |      178555     99.98%     99.98% |          38      0.02%    100.00% |           1      0.00%    100.00% |           0      0.00%    100.00% |           0      0.00%    100.00% |           1      0.00%    100.00% |           1      0.00%    100.00% |           0      0.00%    100.00% |           0      0.00%    100.00% |           0      0.00%    100.00% (Unspecified)
board.cache_hierarchy.ruby_system.RequestType.ST.latency_hist_seqr::total       178596                       (Unspecified)
board.cache_hierarchy.ruby_system.RequestType.ST.hit_latency_hist_seqr::bucket_size           16                       (Unspecified)
board.cache_hierarchy.ruby_system.RequestType.ST.hit_latency_hist_seqr::max_bucket          159                       (Unspecified)
board.cache_hierarchy.ruby_system.RequestType.ST.hit_latency_hist_seqr::samples       178086                       (Unspecified)
board.cache_hierarchy.ruby_system.RequestType.ST.hit_latency_hist_seqr::mean     1.002634                       (Unspecified)
board.cache_hierarchy.ruby_system.RequestType.ST.hit_latency_hist_seqr::gmean     1.000705                       (Unspecified)
board.cache_hierarchy.ruby_system.RequestType.ST.hit_latency_hist_seqr::stdev     0.378418                       (Unspecified)
board.cache_hierarchy.ruby_system.RequestType.ST.hit_latency_hist_seqr |      178082    100.00%    100.00% |           0      0.00%    100.00% |           0      0.00%    100.00% |           1      0.00%    100.00% |           1      0.00%    100.00% |           1      0.00%    100.00% |           1      0.00%    100.00% |           0      0.00%    100.00% |           0      0.00%    100.00% |           0      0.00%    100.00% (Unspecified)
board.cache_hierarchy.ruby_system.RequestType.ST.hit_latency_hist_seqr::total       178086                       (Unspecified)
board.cache_hierarchy.ruby_system.RequestType.ST.miss_latency_hist_seqr::bucket_size          128                       (Unspecified)
board.cache_hierarchy.ruby_system.RequestType.ST.miss_latency_hist_seqr::max_bucket         1279                       (Unspecified)
board.cache_hierarchy.ruby_system.RequestType.ST.miss_latency_hist_seqr::samples          510                       (Unspecified)
board.cache_hierarchy.ruby_system.RequestType.ST.miss_latency_hist_seqr::mean    86.431373                       (Unspecified)
board.cache_hierarchy.ruby_system.RequestType.ST.miss_latency_hist_seqr::gmean    70.771199                       (Unspecified)
board.cache_hierarchy.ruby_system.RequestType.ST.miss_latency_hist_seqr::stdev    57.487559                       (Unspecified)
board.cache_hierarchy.ruby_system.RequestType.ST.miss_latency_hist_seqr |         469     91.96%     91.96% |          38      7.45%     99.41% |           1      0.20%     99.61% |           0      0.00%     99.61% |           0      0.00%     99.61% |           1      0.20%     99.80% |           1      0.20%    100.00% |           0      0.00%    100.00% |           0      0.00%    100.00% |           0      0.00%    100.00% (Unspecified)
board.cache_hierarchy.ruby_system.RequestType.ST.miss_latency_hist_seqr::total          510                       (Unspecified)
board.cache_hierarchy.ruby_system.RequestType.IFETCH.latency_hist_seqr::bucket_size          128                       (Unspecified)
board.cache_hierarchy.ruby_system.RequestType.IFETCH.latency_hist_seqr::max_bucket         1279                       (Unspecified)
board.cache_hierarchy.ruby_system.RequestType.IFETCH.latency_hist_seqr::samples       657092                       (Unspecified)
board.cache_hierarchy.ruby_system.RequestType.IFETCH.latency_hist_seqr::mean     1.105026                       (Unspecified)
board.cache_hierarchy.ruby_system.RequestType.IFETCH.latency_hist_seqr::gmean     1.008743                       (Unspecified)
board.cache_hierarchy.ruby_system.RequestType.IFETCH.latency_hist_seqr::stdev     3.340359                       (Unspecified)
board.cache_hierarchy.ruby_system.RequestType.IFETCH.latency_hist_seqr |      657008     99.99%     99.99% |          80      0.01%    100.00% |           0      0.00%    100.00% |           0      0.00%    100.00% |           0      0.00%    100.00% |           2      0.00%    100.00% |           2      0.00%    100.00% |           0      0.00%    100.00% |           0      0.00%    100.00% |           0      0.00%    100.00% (Unspecified)
board.cache_hierarchy.ruby_system.RequestType.IFETCH.latency_hist_seqr::total       657092                       (Unspecified)
board.cache_hierarchy.ruby_system.RequestType.IFETCH.hit_latency_hist_seqr::bucket_size            1                       (Unspecified)
board.cache_hierarchy.ruby_system.RequestType.IFETCH.hit_latency_hist_seqr::max_bucket            9                       (Unspecified)
board.cache_hierarchy.ruby_system.RequestType.IFETCH.hit_latency_hist_seqr::samples       655393                       (Unspecified)
board.cache_hierarchy.ruby_system.RequestType.IFETCH.hit_latency_hist_seqr::mean            1                       (Unspecified)
board.cache_hierarchy.ruby_system.RequestType.IFETCH.hit_latency_hist_seqr::gmean            1                       (Unspecified)
board.cache_hierarchy.ruby_system.RequestType.IFETCH.hit_latency_hist_seqr |           0      0.00%      0.00% |      655393    100.00%    100.00% |           0      0.00%    100.00% |           0      0.00%    100.00% |           0      0.00%    100.00% |           0      0.00%    100.00% |           0      0.00%    100.00% |           0      0.00%    100.00% |           0      0.00%    100.00% |           0      0.00%    100.00% (Unspecified)
board.cache_hierarchy.ruby_system.RequestType.IFETCH.hit_latency_hist_seqr::total       655393                       (Unspecified)
board.cache_hierarchy.ruby_system.RequestType.IFETCH.miss_latency_hist_seqr::bucket_size          128                       (Unspecified)
board.cache_hierarchy.ruby_system.RequestType.IFETCH.miss_latency_hist_seqr::max_bucket         1279                       (Unspecified)
board.cache_hierarchy.ruby_system.RequestType.IFETCH.miss_latency_hist_seqr::samples         1699                       (Unspecified)
board.cache_hierarchy.ruby_system.RequestType.IFETCH.miss_latency_hist_seqr::mean    41.619188                       (Unspecified)
board.cache_hierarchy.ruby_system.RequestType.IFETCH.miss_latency_hist_seqr::gmean    28.981887                       (Unspecified)
board.cache_hierarchy.ruby_system.RequestType.IFETCH.miss_latency_hist_seqr::stdev    51.684570                       (Unspecified)
board.cache_hierarchy.ruby_system.RequestType.IFETCH.miss_latency_hist_seqr |        1615     95.06%     95.06% |          80      4.71%     99.76% |           0      0.00%     99.76% |           0      0.00%     99.76% |           0      0.00%     99.76% |           2      0.12%     99.88% |           2      0.12%    100.00% |           0      0.00%    100.00% |           0      0.00%    100.00% |           0      0.00%    100.00% (Unspecified)
board.cache_hierarchy.ruby_system.RequestType.IFETCH.miss_latency_hist_seqr::total         1699                       (Unspecified)
board.cache_hierarchy.ruby_system.RequestType.RMW_Read.latency_hist_seqr::bucket_size           16                       (Unspecified)
board.cache_hierarchy.ruby_system.RequestType.RMW_Read.latency_hist_seqr::max_bucket          159                       (Unspecified)
board.cache_hierarchy.ruby_system.RequestType.RMW_Read.latency_hist_seqr::samples          213                       (Unspecified)
board.cache_hierarchy.ruby_system.RequestType.RMW_Read.latency_hist_seqr::mean     5.187793                       (Unspecified)
board.cache_hierarchy.ruby_system.RequestType.RMW_Read.latency_hist_seqr::gmean     1.409484                       (Unspecified)
board.cache_hierarchy.ruby_system.RequestType.RMW_Read.latency_hist_seqr::stdev    17.587851                       (Unspecified)
board.cache_hierarchy.ruby_system.RequestType.RMW_Read.latency_hist_seqr |         196     92.02%     92.02% |           2      0.94%     92.96% |          11      5.16%     98.12% |           0      0.00%     98.12% |           0      0.00%     98.12% |           0      0.00%     98.12% |           2      0.94%     99.06% |           0      0.00%     99.06% |           2      0.94%    100.00% |           0      0.00%    100.00% (Unspecified)
board.cache_hierarchy.ruby_system.RequestType.RMW_Read.latency_hist_seqr::total          213                       (Unspecified)
board.cache_hierarchy.ruby_system.RequestType.RMW_Read.hit_latency_hist_seqr::bucket_size            1                       (Unspecified)
board.cache_hierarchy.ruby_system.RequestType.RMW_Read.hit_latency_hist_seqr::max_bucket            9                       (Unspecified)
board.cache_hierarchy.ruby_system.RequestType.RMW_Read.hit_latency_hist_seqr::samples          196                       (Unspecified)
board.cache_hierarchy.ruby_system.RequestType.RMW_Read.hit_latency_hist_seqr::mean     1.066327                       (Unspecified)
board.cache_hierarchy.ruby_system.RequestType.RMW_Read.hit_latency_hist_seqr::gmean     1.047047                       (Unspecified)
board.cache_hierarchy.ruby_system.RequestType.RMW_Read.hit_latency_hist_seqr::stdev     0.249489                       (Unspecified)
board.cache_hierarchy.ruby_system.RequestType.RMW_Read.hit_latency_hist_seqr |           0      0.00%      0.00% |         183     93.37%     93.37% |          13      6.63%    100.00% |           0      0.00%    100.00% |           0      0.00%    100.00% |           0      0.00%    100.00% |           0      0.00%    100.00% |           0      0.00%    100.00% |           0      0.00%    100.00% |           0      0.00%    100.00% (Unspecified)
board.cache_hierarchy.ruby_system.RequestType.RMW_Read.hit_latency_hist_seqr::total          196                       (Unspecified)
board.cache_hierarchy.ruby_system.RequestType.RMW_Read.miss_latency_hist_seqr::bucket_size           16                       (Unspecified)
board.cache_hierarchy.ruby_system.RequestType.RMW_Read.miss_latency_hist_seqr::max_bucket          159                       (Unspecified)
board.cache_hierarchy.ruby_system.RequestType.RMW_Read.miss_latency_hist_seqr::samples           17                       (Unspecified)
board.cache_hierarchy.ruby_system.RequestType.RMW_Read.miss_latency_hist_seqr::mean    52.705882                       (Unspecified)
board.cache_hierarchy.ruby_system.RequestType.RMW_Read.miss_latency_hist_seqr::gmean    43.394833                       (Unspecified)
board.cache_hierarchy.ruby_system.RequestType.RMW_Read.miss_latency_hist_seqr::stdev    38.609851                       (Unspecified)
board.cache_hierarchy.ruby_system.RequestType.RMW_Read.miss_latency_hist_seqr |           0      0.00%      0.00% |           2     11.76%     11.76% |          11     64.71%     76.47% |           0      0.00%     76.47% |           0      0.00%     76.47% |           0      0.00%     76.47% |           2     11.76%     88.24% |           0      0.00%     88.24% |           2     11.76%    100.00% |           0      0.00%    100.00% (Unspecified)
board.cache_hierarchy.ruby_system.RequestType.RMW_Read.miss_latency_hist_seqr::total           17                       (Unspecified)
board.cache_hierarchy.ruby_system.RequestType.Locked_RMW_Read.latency_hist_seqr::bucket_size           32                       (Unspecified)
board.cache_hierarchy.ruby_system.RequestType.Locked_RMW_Read.latency_hist_seqr::max_bucket          319                       (Unspecified)
board.cache_hierarchy.ruby_system.RequestType.Locked_RMW_Read.latency_hist_seqr::samples        33149                       (Unspecified)
board.cache_hierarchy.ruby_system.RequestType.Locked_RMW_Read.latency_hist_seqr::mean   141.310205                       (Unspecified)
board.cache_hierarchy.ruby_system.RequestType.Locked_RMW_Read.latency_hist_seqr::gmean   131.172399                       (Unspecified)
board.cache_hierarchy.ruby_system.RequestType.Locked_RMW_Read.latency_hist_seqr::stdev    28.815207                       (Unspecified)
board.cache_hierarchy.ruby_system.RequestType.Locked_RMW_Read.latency_hist_seqr |         553      1.67%      1.67% |         939      2.83%      4.50% |         512      1.54%      6.05% |         832      2.51%      8.56% |       30293     91.38%     99.94% |          20      0.06%    100.00% |           0      0.00%    100.00% |           0      0.00%    100.00% |           0      0.00%    100.00% |           0      0.00%    100.00% (Unspecified)
board.cache_hierarchy.ruby_system.RequestType.Locked_RMW_Read.latency_hist_seqr::total        33149                       (Unspecified)
board.cache_hierarchy.ruby_system.RequestType.Locked_RMW_Read.hit_latency_hist_seqr::bucket_size            1                       (Unspecified)
board.cache_hierarchy.ruby_system.RequestType.Locked_RMW_Read.hit_latency_hist_seqr::max_bucket            9                       (Unspecified)
board.cache_hierarchy.ruby_system.RequestType.Locked_RMW_Read.hit_latency_hist_seqr::samples          403                       (Unspecified)
board.cache_hierarchy.ruby_system.RequestType.Locked_RMW_Read.hit_latency_hist_seqr::mean            1                       (Unspecified)
board.cache_hierarchy.ruby_system.RequestType.Locked_RMW_Read.hit_latency_hist_seqr::gmean            1                       (Unspecified)
board.cache_hierarchy.ruby_system.RequestType.Locked_RMW_Read.hit_latency_hist_seqr |           0      0.00%      0.00% |         403    100.00%    100.00% |           0      0.00%    100.00% |           0      0.00%    100.00% |           0      0.00%    100.00% |           0      0.00%    100.00% |           0      0.00%    100.00% |           0      0.00%    100.00% |           0      0.00%    100.00% |           0      0.00%    100.00% (Unspecified)
board.cache_hierarchy.ruby_system.RequestType.Locked_RMW_Read.hit_latency_hist_seqr::total          403                       (Unspecified)
board.cache_hierarchy.ruby_system.RequestType.Locked_RMW_Read.miss_latency_hist_seqr::bucket_size           32                       (Unspecified)
board.cache_hierarchy.ruby_system.RequestType.Locked_RMW_Read.miss_latency_hist_seqr::max_bucket          319                       (Unspecified)
board.cache_hierarchy.ruby_system.RequestType.Locked_RMW_Read.miss_latency_hist_seqr::samples        32746                       (Unspecified)
board.cache_hierarchy.ruby_system.RequestType.Locked_RMW_Read.miss_latency_hist_seqr::mean   143.036982                       (Unspecified)
board.cache_hierarchy.ruby_system.RequestType.Locked_RMW_Read.miss_latency_hist_seqr::gmean   139.285665                       (Unspecified)
board.cache_hierarchy.ruby_system.RequestType.Locked_RMW_Read.miss_latency_hist_seqr::stdev    24.397980                       (Unspecified)
board.cache_hierarchy.ruby_system.RequestType.Locked_RMW_Read.miss_latency_hist_seqr |         150      0.46%      0.46% |         939      2.87%      3.33% |         512      1.56%      4.89% |         832      2.54%      7.43% |       30293     92.51%     99.94% |          20      0.06%    100.00% |           0      0.00%    100.00% |           0      0.00%    100.00% |           0      0.00%    100.00% |           0      0.00%    100.00% (Unspecified)
board.cache_hierarchy.ruby_system.RequestType.Locked_RMW_Read.miss_latency_hist_seqr::total        32746                       (Unspecified)
board.cache_hierarchy.ruby_system.RequestType.Locked_RMW_Write.latency_hist_seqr::bucket_size            1                       (Unspecified)
board.cache_hierarchy.ruby_system.RequestType.Locked_RMW_Write.latency_hist_seqr::max_bucket            9                       (Unspecified)
board.cache_hierarchy.ruby_system.RequestType.Locked_RMW_Write.latency_hist_seqr::samples        33149                       (Unspecified)
board.cache_hierarchy.ruby_system.RequestType.Locked_RMW_Write.latency_hist_seqr::mean            1                       (Unspecified)
board.cache_hierarchy.ruby_system.RequestType.Locked_RMW_Write.latency_hist_seqr::gmean            1                       (Unspecified)
board.cache_hierarchy.ruby_system.RequestType.Locked_RMW_Write.latency_hist_seqr |           0      0.00%      0.00% |       33149    100.00%    100.00% |           0      0.00%    100.00% |           0      0.00%    100.00% |           0      0.00%    100.00% |           0      0.00%    100.00% |           0      0.00%    100.00% |           0      0.00%    100.00% |           0      0.00%    100.00% |           0      0.00%    100.00% (Unspecified)
board.cache_hierarchy.ruby_system.RequestType.Locked_RMW_Write.latency_hist_seqr::total        33149                       (Unspecified)
board.cache_hierarchy.ruby_system.RequestType.Locked_RMW_Write.hit_latency_hist_seqr::bucket_size            1                       (Unspecified)
board.cache_hierarchy.ruby_system.RequestType.Locked_RMW_Write.hit_latency_hist_seqr::max_bucket            9                       (Unspecified)
board.cache_hierarchy.ruby_system.RequestType.Locked_RMW_Write.hit_latency_hist_seqr::samples        33149                       (Unspecified)
board.cache_hierarchy.ruby_system.RequestType.Locked_RMW_Write.hit_latency_hist_seqr::mean            1                       (Unspecified)
board.cache_hierarchy.ruby_system.RequestType.Locked_RMW_Write.hit_latency_hist_seqr::gmean            1                       (Unspecified)
board.cache_hierarchy.ruby_system.RequestType.Locked_RMW_Write.hit_latency_hist_seqr |           0      0.00%      0.00% |       33149    100.00%    100.00% |           0      0.00%    100.00% |           0      0.00%    100.00% |           0      0.00%    100.00% |           0      0.00%    100.00% |           0      0.00%    100.00% |           0      0.00%    100.00% |           0      0.00%    100.00% |           0      0.00%    100.00% (Unspecified)
board.cache_hierarchy.ruby_system.RequestType.Locked_RMW_Write.hit_latency_hist_seqr::total        33149                       (Unspecified)
board.cache_hierarchy.ruby_system.directory_controllers.power_state.pwrStateResidencyTicks::UNDEFINED    769832500                       # Cumulative time (in ticks) in various power states (Tick)
board.cache_hierarchy.ruby_system.directory_controllers.requestToDir.m_msg_count          769                       # Number of messages passed the buffer (Count)
board.cache_hierarchy.ruby_system.directory_controllers.requestToDir.m_buf_msgs     0.000764                       # Average number of messages in buffer ((Count/Tick))
board.cache_hierarchy.ruby_system.directory_controllers.requestToMemory.m_msg_count          769                       # Number of messages passed the buffer (Count)
board.cache_hierarchy.ruby_system.directory_controllers.requestToMemory.m_buf_msgs     0.000769                       # Average number of messages in buffer ((Count/Tick))
board.cache_hierarchy.ruby_system.directory_controllers.requestToMemory.m_stall_time         2500                       # Total number of ticks messages were stalled in this buffer (Tick)
board.cache_hierarchy.ruby_system.directory_controllers.requestToMemory.m_avg_stall_time     3.250975                       # Average stall ticks per message ((Tick/Count))
board.cache_hierarchy.ruby_system.directory_controllers.responseFromDir.m_msg_count          769                       # Number of messages passed the buffer (Count)
board.cache_hierarchy.ruby_system.directory_controllers.responseFromDir.m_buf_msgs     0.000764                       # Average number of messages in buffer ((Count/Tick))
board.cache_hierarchy.ruby_system.directory_controllers.responseFromMemory.m_msg_count          769                       # Number of messages passed the buffer (Count)
board.cache_hierarchy.ruby_system.directory_controllers.responseFromMemory.m_buf_msgs     0.000865                       # Average number of messages in buffer ((Count/Tick))
board.cache_hierarchy.ruby_system.l1_controllers0.fullyBusyCycles          234                       # cycles for which number of transistions == max transitions (Unspecified)
board.cache_hierarchy.ruby_system.l1_controllers0.delayHistogram::samples         1314                       # delay_histogram (Unspecified)
board.cache_hierarchy.ruby_system.l1_controllers0.delayHistogram::mean     0.165906                       # delay_histogram (Unspecified)
board.cache_hierarchy.ruby_system.l1_controllers0.delayHistogram::stdev     1.070206                       # delay_histogram (Unspecified)
board.cache_hierarchy.ruby_system.l1_controllers0.delayHistogram::0-1         1275     97.03%     97.03% # delay_histogram (Unspecified)
board.cache_hierarchy.ruby_system.l1_controllers0.delayHistogram::2-3            5      0.38%     97.41% # delay_histogram (Unspecified)
board.cache_hierarchy.ruby_system.l1_controllers0.delayHistogram::4-5           16      1.22%     98.63% # delay_histogram (Unspecified)
board.cache_hierarchy.ruby_system.l1_controllers0.delayHistogram::6-7            7      0.53%     99.16% # delay_histogram (Unspecified)
board.cache_hierarchy.ruby_system.l1_controllers0.delayHistogram::8-9            8      0.61%     99.77% # delay_histogram (Unspecified)
board.cache_hierarchy.ruby_system.l1_controllers0.delayHistogram::10-11            1      0.08%     99.85% # delay_histogram (Unspecified)
board.cache_hierarchy.ruby_system.l1_controllers0.delayHistogram::12-13            1      0.08%     99.92% # delay_histogram (Unspecified)
board.cache_hierarchy.ruby_system.l1_controllers0.delayHistogram::16-17            1      0.08%    100.00% # delay_histogram (Unspecified)
board.cache_hierarchy.ruby_system.l1_controllers0.delayHistogram::total         1314                       # delay_histogram (Unspecified)
board.cache_hierarchy.ruby_system.l1_controllers0.L1Dcache.m_demand_hits        18272                       # Number of cache demand hits (Unspecified)
board.cache_hierarchy.ruby_system.l1_controllers0.L1Dcache.m_demand_misses          314                       # Number of cache demand misses (Unspecified)
board.cache_hierarchy.ruby_system.l1_controllers0.L1Dcache.m_demand_accesses        18586                       # Number of cache demand accesses (Unspecified)
board.cache_hierarchy.ruby_system.l1_controllers0.L1Icache.m_demand_hits        11171                       # Number of cache demand hits (Unspecified)
board.cache_hierarchy.ruby_system.l1_controllers0.L1Icache.m_demand_misses          311                       # Number of cache demand misses (Unspecified)
board.cache_hierarchy.ruby_system.l1_controllers0.L1Icache.m_demand_accesses        11482                       # Number of cache demand accesses (Unspecified)
board.cache_hierarchy.ruby_system.l1_controllers0.mandatoryQueue.m_msg_count        30068                       # Number of messages passed the buffer (Count)
board.cache_hierarchy.ruby_system.l1_controllers0.mandatoryQueue.m_buf_msgs     0.029897                       # Average number of messages in buffer ((Count/Tick))
board.cache_hierarchy.ruby_system.l1_controllers0.mandatoryQueue.m_stall_time        13500                       # Total number of ticks messages were stalled in this buffer (Tick)
board.cache_hierarchy.ruby_system.l1_controllers0.mandatoryQueue.m_avg_stall_time     0.448982                       # Average stall ticks per message ((Tick/Count))
board.cache_hierarchy.ruby_system.l1_controllers0.power_state.pwrStateResidencyTicks::UNDEFINED    769832500                       # Cumulative time (in ticks) in various power states (Tick)
board.cache_hierarchy.ruby_system.l1_controllers0.prefetcher.RubyPrefetcher.numMissObserved            0                       # Number of misses observed (Unspecified)
board.cache_hierarchy.ruby_system.l1_controllers0.prefetcher.RubyPrefetcher.numAllocatedStreams            0                       # Number of streams allocated for prefetching (Unspecified)
board.cache_hierarchy.ruby_system.l1_controllers0.prefetcher.RubyPrefetcher.numPrefetchRequested            0                       # Number of prefetch requests made (Unspecified)
board.cache_hierarchy.ruby_system.l1_controllers0.prefetcher.RubyPrefetcher.numHits            0                       # Number of prefetched blocks accessed (for the first time) (Unspecified)
board.cache_hierarchy.ruby_system.l1_controllers0.prefetcher.RubyPrefetcher.numPartialHits            0                       # Number of misses observed for a block being prefetched (Unspecified)
board.cache_hierarchy.ruby_system.l1_controllers0.prefetcher.RubyPrefetcher.numPagesCrossed            0                       # Number of prefetches across pages (Unspecified)
board.cache_hierarchy.ruby_system.l1_controllers0.prefetcher.RubyPrefetcher.numMissedPrefetchedBlocks            0                       # Number of misses for blocks that were prefetched, yet missed (Unspecified)
[...]
board.processor.cores8.core.decode.branchMispred          113                       # Number of times decode detected a branch misprediction (Count)
board.processor.cores8.core.decode.decodedInsts       606268                       # Number of instructions handled by decode (Count)
board.processor.cores8.core.decode.squashedInsts          565                       # Number of squashed instructions handled by decode (Count)
board.processor.cores8.core.executeStats0.numInsts       354332                       # Number of executed instructions (Count)
board.processor.cores8.core.executeStats0.numNop            0                       # Number of nop insts executed (Count)
board.processor.cores8.core.executeStats0.numBranches        25246                       # Number of branches executed (Count)
board.processor.cores8.core.executeStats0.numLoadInsts        82726                       # Number of load instructions executed (Count)
board.processor.cores8.core.executeStats0.numStoreInsts        37447                       # Number of stores executed (Count)
board.processor.cores8.core.executeStats0.instRate     0.381123                       # Inst execution rate ((Count/Cycle))
board.processor.cores8.core.executeStats0.numCCRegReads        43316                       # Number of times the CC registers were read (Count)
board.processor.cores8.core.executeStats0.numCCRegWrites        58693                       # Number of times the CC registers were written (Count)
board.processor.cores8.core.executeStats0.numFpRegReads           21                       # Number of times the floating registers were read (Count)
board.processor.cores8.core.executeStats0.numFpRegWrites           12                       # Number of times the floating registers were written (Count)
board.processor.cores8.core.executeStats0.numIntRegReads       461547                       # Number of times the integer registers were read (Count)
board.processor.cores8.core.executeStats0.numIntRegWrites       262325                       # Number of times the integer registers were written (Count)
board.processor.cores8.core.executeStats0.numMemRefs       120173                       # Number of memory refs (Count)
board.processor.cores8.core.executeStats0.numMiscRegReads       170658                       # Number of times the Misc registers were read (Count)
board.processor.cores8.core.executeStats0.numMiscRegWrites            1                       # Number of times the Misc registers were written (Count)
board.processor.cores8.core.executeStats0.numVecAluAccesses            0                       # Number of vector alu accesses (Count)
board.processor.cores8.core.executeStats0.numDiscardedOps            0                       # Number of ops (including micro ops) which were discarded before commit (Count)
board.processor.cores8.core.fetch.predictedBranches        45624                       # Number of branches that fetch has predicted taken (Count)
board.processor.cores8.core.fetch.cycles       839839                       # Number of cycles fetch has run and was not squashing or blocked (Cycle)
board.processor.cores8.core.fetch.squashCycles         8658                       # Number of cycles fetch has spent squashing (Cycle)
board.processor.cores8.core.fetch.miscStallCycles           24                       # Number of cycles fetch has spent waiting on interrupts, or bad addresses, or out of MSHRs (Cycle)
board.processor.cores8.core.fetch.pendingTrapStallCycles          140                       # Number of stall cycles due to pending traps (Cycle)
board.processor.cores8.core.fetch.cacheLines        80708                       # Number of cache lines fetched (Count)
board.processor.cores8.core.fetch.icacheSquashes         2144                       # Number of outstanding Icache misses that were squashed (Count)
board.processor.cores8.core.fetch.nisnDist::samples       929525                       # Number of instructions fetched each cycle (Total) (Count)
board.processor.cores8.core.fetch.nisnDist::mean     0.795015                       # Number of instructions fetched each cycle (Total) (Count)
board.processor.cores8.core.fetch.nisnDist::stdev     2.194488                       # Number of instructions fetched each cycle (Total) (Count)
board.processor.cores8.core.fetch.nisnDist::underflows            0      0.00%      0.00% # Number of instructions fetched each cycle (Total) (Count)
board.processor.cores8.core.fetch.nisnDist::0       798980     85.96%     85.96% # Number of instructions fetched each cycle (Total) (Count)
board.processor.cores8.core.fetch.nisnDist::1        16446      1.77%     87.73% # Number of instructions fetched each cycle (Total) (Count)
board.processor.cores8.core.fetch.nisnDist::2        10281      1.11%     88.83% # Number of instructions fetched each cycle (Total) (Count)
board.processor.cores8.core.fetch.nisnDist::3           71      0.01%     88.84% # Number of instructions fetched each cycle (Total) (Count)
board.processor.cores8.core.fetch.nisnDist::4        14433      1.55%     90.39% # Number of instructions fetched each cycle (Total) (Count)
board.processor.cores8.core.fetch.nisnDist::5        16537      1.78%     92.17% # Number of instructions fetched each cycle (Total) (Count)
board.processor.cores8.core.fetch.nisnDist::6         8307      0.89%     93.06% # Number of instructions fetched each cycle (Total) (Count)
board.processor.cores8.core.fetch.nisnDist::7         4254      0.46%     93.52% # Number of instructions fetched each cycle (Total) (Count)
board.processor.cores8.core.fetch.nisnDist::8        60216      6.48%    100.00% # Number of instructions fetched each cycle (Total) (Count)
board.processor.cores8.core.fetch.nisnDist::overflows            0      0.00%    100.00% # Number of instructions fetched each cycle (Total) (Count)
board.processor.cores8.core.fetch.nisnDist::min_value            0                       # Number of instructions fetched each cycle (Total) (Count)
board.processor.cores8.core.fetch.nisnDist::max_value            8                       # Number of instructions fetched each cycle (Total) (Count)
board.processor.cores8.core.fetch.nisnDist::total       929525                       # Number of instructions fetched each cycle (Total) (Count)
board.processor.cores8.core.fetchStats0.numInsts       482049                       # Number of instructions fetched (thread level) (Count)
board.processor.cores8.core.fetchStats0.numOps            0                       # Number of ops (including micro ops) fetched (thread level) (Count)
board.processor.cores8.core.fetchStats0.fetchRate     0.518497                       # Number of inst fetches per cycle ((Count/Cycle))
board.processor.cores8.core.fetchStats0.numBranches        46198                       # Number of branches fetched (Count)
board.processor.cores8.core.fetchStats0.branchRate     0.049691                       # Number of branch fetches per cycle (Ratio)
board.processor.cores8.core.fetchStats0.icacheStallCycles        85193                       # ICache total stall cycles (Cycle)
board.processor.cores8.core.fetchStats0.numFetchSuspends            0                       # Number of times Execute suspended instruction fetching (Count)
board.processor.cores8.core.iew.idleCycles            0                       # Number of cycles IEW is idle (Cycle)
board.processor.cores8.core.iew.squashCycles         4218                       # Number of cycles IEW is squashing (Cycle)
board.processor.cores8.core.iew.blockCycles       694812                       # Number of cycles IEW is blocking (Cycle)
board.processor.cores8.core.iew.unblockCycles         8220                       # Number of cycles IEW is unblocking (Cycle)
board.processor.cores8.core.iew.dispatchedInsts       556378                       # Number of instructions dispatched to IQ (Count)
board.processor.cores8.core.iew.dispSquashedInsts           24                       # Number of squashed instructions skipped by dispatch (Count)
board.processor.cores8.core.iew.dispLoadInsts       146452                       # Number of dispatched load instructions (Count)
board.processor.cores8.core.iew.dispStoreInsts        70356                       # Number of dispatched store instructions (Count)
board.processor.cores8.core.iew.dispNonSpecInsts        12321                       # Number of dispatched non-speculative instructions (Count)
board.processor.cores8.core.iew.iqFullEvents         2071                       # Number of times the IQ has become full, causing a stall (Count)
board.processor.cores8.core.iew.lsqFullEvents            1                       # Number of times the LSQ has become full, causing a stall (Count)
board.processor.cores8.core.iew.memOrderViolationEvents         8199                       # Number of memory order violations (Count)
board.processor.cores8.core.iew.predictedTakenIncorrect            6                       # Number of branches that were predicted taken incorrectly (Count)
board.processor.cores8.core.iew.predictedNotTakenIncorrect          111                       # Number of branches that were predicted not taken incorrectly (Count)
board.processor.cores8.core.iew.branchMispredicts          117                       # Number of branch mispredicts detected at execute (Count)
board.processor.cores8.core.iew.instsToCommit       354286                       # Cumulative count of insts sent to commit (Count)
board.processor.cores8.core.iew.writebackCount       354184                       # Cumulative count of insts written-back (Count)
board.processor.cores8.core.iew.producerInst       235402                       # Number of instructions producing a value (Count)
board.processor.cores8.core.iew.consumerInst       438371                       # Number of instructions consuming a value (Count)
board.processor.cores8.core.iew.wbRate       0.380964                       # Insts written-back per cycle ((Count/Cycle))
board.processor.cores8.core.iew.wbFanout     0.536993                       # Average fanout of values written-back ((Count/Count))
board.processor.cores8.core.interrupts.clk_domain.clock         8000                       # Clock period in ticks (Tick)
board.processor.cores8.core.lsq0.forwLoads         8382                       # Number of loads that had data forwarded from stores (Count)
board.processor.cores8.core.lsq0.squashedLoads        92638                       # Number of loads squashed (Count)
board.processor.cores8.core.lsq0.ignoredResponses            0                       # Number of memory responses ignored because the instruction is squashed (Count)
board.processor.cores8.core.lsq0.memOrderViolation         8199                       # Number of memory ordering violations (Count)
board.processor.cores8.core.lsq0.squashedStores        45340                       # Number of stores squashed (Count)
board.processor.cores8.core.lsq0.rescheduledLoads            0                       # Number of loads that were rescheduled (Count)
board.processor.cores8.core.lsq0.blockedByCache            3                       # Number of times an access to memory failed due to the cache being blocked (Count)
board.processor.cores8.core.lsq0.loadToUse::samples        53814                       # Distribution of cycle latency between the first time a load is issued and its completion (Unspecified)
board.processor.cores8.core.lsq0.loadToUse::mean    14.405731                       # Distribution of cycle latency between the first time a load is issued and its completion (Unspecified)
board.processor.cores8.core.lsq0.loadToUse::stdev    38.380549                       # Distribution of cycle latency between the first time a load is issued and its completion (Unspecified)
board.processor.cores8.core.lsq0.loadToUse::0-9        47629     88.51%     88.51% # Distribution of cycle latency between the first time a load is issued and its completion (Unspecified)
board.processor.cores8.core.lsq0.loadToUse::10-19          264      0.49%     89.00% # Distribution of cycle latency between the first time a load is issued and its completion (Unspecified)
board.processor.cores8.core.lsq0.loadToUse::20-29         1833      3.41%     92.40% # Distribution of cycle latency between the first time a load is issued and its completion (Unspecified)
board.processor.cores8.core.lsq0.loadToUse::30-39           91      0.17%     92.57% # Distribution of cycle latency between the first time a load is issued and its completion (Unspecified)
board.processor.cores8.core.lsq0.loadToUse::40-49           31      0.06%     92.63% # Distribution of cycle latency between the first time a load is issued and its completion (Unspecified)
board.processor.cores8.core.lsq0.loadToUse::50-59           23      0.04%     92.67% # Distribution of cycle latency between the first time a load is issued and its completion (Unspecified)
board.processor.cores8.core.lsq0.loadToUse::70-79           23      0.04%     92.72% # Distribution of cycle latency between the first time a load is issued and its completion (Unspecified)
board.processor.cores8.core.lsq0.loadToUse::80-89           36      0.07%     92.78% # Distribution of cycle latency between the first time a load is issued and its completion (Unspecified)
board.processor.cores8.core.lsq0.loadToUse::100-109           40      0.07%     92.86% # Distribution of cycle latency between the first time a load is issued and its completion (Unspecified)
board.processor.cores8.core.lsq0.loadToUse::110-119           33      0.06%     92.92% # Distribution of cycle latency between the first time a load is issued and its completion (Unspecified)
board.processor.cores8.core.lsq0.loadToUse::130-139           45      0.08%     93.00% # Distribution of cycle latency between the first time a load is issued and its completion (Unspecified)
board.processor.cores8.core.lsq0.loadToUse::140-149         1876      3.49%     96.49% # Distribution of cycle latency between the first time a load is issued and its completion (Unspecified)
board.processor.cores8.core.lsq0.loadToUse::150-159            3      0.01%     96.49% # Distribution of cycle latency between the first time a load is issued and its completion (Unspecified)
board.processor.cores8.core.lsq0.loadToUse::160-169         1887      3.51%    100.00% # Distribution of cycle latency between the first time a load is issued and its completion (Unspecified)
board.processor.cores8.core.lsq0.loadToUse::min_value            2                       # Distribution of cycle latency between the first time a load is issued and its completion (Unspecified)
board.processor.cores8.core.lsq0.loadToUse::max_value          162                       # Distribution of cycle latency between the first time a load is issued and its completion (Unspecified)
board.processor.cores8.core.lsq0.loadToUse::total        53814                       # Distribution of cycle latency between the first time a load is issued and its completion (Unspecified)
board.processor.cores8.core.mmu.dtb.rdAccesses        82721                       # TLB accesses on read requests (Count)
board.processor.cores8.core.mmu.dtb.wrAccesses        37447                       # TLB accesses on write requests (Count)
board.processor.cores8.core.mmu.dtb.rdMisses           89                       # TLB misses on read requests (Count)
board.processor.cores8.core.mmu.dtb.wrMisses            9                       # TLB misses on write requests (Count)
board.processor.cores8.core.mmu.dtb.walker.power_state.pwrStateResidencyTicks::UNDEFINED    769832500                       # Cumulative time (in ticks) in various power states (Tick)
board.processor.cores8.core.mmu.itb.rdAccesses            0                       # TLB accesses on read requests (Count)
board.processor.cores8.core.mmu.itb.wrAccesses        80732                       # TLB accesses on write requests (Count)
board.processor.cores8.core.mmu.itb.rdMisses            0                       # TLB misses on read requests (Count)
board.processor.cores8.core.mmu.itb.wrMisses           64                       # TLB misses on write requests (Count)
board.processor.cores8.core.mmu.itb.walker.power_state.pwrStateResidencyTicks::UNDEFINED    769832500                       # Cumulative time (in ticks) in various power states (Tick)
board.processor.cores8.core.power_state.pwrStateResidencyTicks::ON    769832500                       # Cumulative time (in ticks) in various power states (Tick)
board.processor.cores8.core.rename.squashCycles         4218                       # Number of cycles rename is squashing (Cycle)
board.processor.cores8.core.rename.idleCycles        52484                       # Number of cycles rename is idle (Cycle)
board.processor.cores8.core.rename.blockCycles       744060                       # Number of cycles rename is blocking (Cycle)
board.processor.cores8.core.rename.serializeStallCycles            0                       # count of cycles rename stalled for serializing inst (Cycle)
board.processor.cores8.core.rename.runCycles        76980                       # Number of cycles rename is running (Cycle)
board.processor.cores8.core.rename.unblockCycles        51783                       # Number of cycles rename is unblocking (Cycle)
board.processor.cores8.core.rename.renamedInsts       589616                       # Number of instructions processed by rename (Count)
board.processor.cores8.core.rename.IQFullEvents        49259                       # Number of times rename has blocked due to IQ full (Count)
board.processor.cores8.core.rename.LQFullEvents           61                       # Number of times rename has blocked due to LQ full (Count)
board.processor.cores8.core.rename.SQFullEvents          402                       # Number of times rename has blocked due to SQ full (Count)
board.processor.cores8.core.rename.renamedOperands       746487                       # Number of destination operands rename has renamed (Count)
board.processor.cores8.core.rename.lookups      1744166                       # Number of register rename lookups that rename has made (Count)
board.processor.cores8.core.rename.intLookups       843252                       # Number of integer rename lookups (Count)
board.processor.cores8.core.rename.fpLookups           21                       # Number of floating rename lookups (Count)
board.processor.cores8.core.rename.committedMaps       255691                       # Number of HB maps that are committed (Count)
board.processor.cores8.core.rename.undoneMaps       490796                       # Number of HB maps that are undone due to squashing (Count)
board.processor.cores8.core.rename.serializing            0                       # count of serializing insts renamed (Count)
board.processor.cores8.core.rename.tempSerializing            0                       # count of temporary serializing insts renamed (Count)
board.processor.cores8.core.rename.skidInsts       113101                       # count of insts added to the skid buffer (Count)
board.processor.cores8.core.rob.reads         1435900                       # The number of ROB reads (Count)
board.processor.cores8.core.rob.writes        1157957                       # The number of ROB writes (Count)
board.processor.cores8.core.thread_0.numInsts       128920                       # Number of Instructions committed (Count)
board.processor.cores8.core.thread_0.numOps       200735                       # Number of Ops committed (Count)
board.processor.cores8.core.thread_0.numMemRefs            0                       # Number of Memory References (Count)
board.workload.inst.arm                             0                       # number of arm instructions executed (Count)
board.workload.inst.quiesce                         0                       # number of quiesce instructions executed (Count)

---------- End Simulation Statistics   ----------
