
---------- Begin Simulation Statistics ----------
simSeconds                                   0.000143                       # Number of seconds simulated (Second)
simTicks                                    142553000                       # Number of ticks simulated (Tick)
finalTick                                   415056500                       # Number of ticks from beginning of simulation (restored from checkpoints and never reset) (Tick)
simFreq                                  1000000000000                       # The number of ticks per simulated second ((Tick/Second))
hostSeconds                                     27.49                       # Real time elapsed on the host (Second)
hostTickRate                                  5186240                       # The number of ticks simulated per host second (ticks/s) ((Tick/Second))
hostMemory                                    1747952                       # Number of bytes of host memory used (Byte)
simInsts                                      1794303                       # Number of instructions simulated (Count)
simOps                                        3017696                       # Number of ops (including micro ops) simulated (Count)
hostInstRate                                    65278                       # Simulator instruction rate (inst/s) ((Count/Second))
hostOpRate                                     109787                       # Simulator op (including micro ops) rate (op/s) ((Count/Second))
board.cache_hierarchy.ruby_system.delayHistogram::bucket_size            8                       # delay histogram for all message (Unspecified)
board.cache_hierarchy.ruby_system.delayHistogram::max_bucket           79                       # delay histogram for all message (Unspecified)
board.cache_hierarchy.ruby_system.delayHistogram::samples        21512                       # delay histogram for all message (Unspecified)
board.cache_hierarchy.ruby_system.delayHistogram::mean     0.419115                       # delay histogram for all message (Unspecified)
board.cache_hierarchy.ruby_system.delayHistogram::stdev     1.940461                       # delay histogram for all message (Unspecified)
board.cache_hierarchy.ruby_system.delayHistogram |       20689     96.17%     96.17% |         763      3.55%     99.72% |          45      0.21%     99.93% |          12      0.06%     99.99% |           2      0.01%    100.00% |           1      0.00%    100.00% |           0      0.00%    100.00% |           0      0.00%    100.00% |           0      0.00%    100.00% |           0      0.00%    100.00% # delay histogram for all message (Unspecified)
board.cache_hierarchy.ruby_system.delayHistogram::total        21512                       # delay histogram for all message (Unspecified)
board.cache_hierarchy.ruby_system.m_outstandReqHistSeqr::bucket_size            2                       (Unspecified)
board.cache_hierarchy.ruby_system.m_outstandReqHistSeqr::max_bucket           19                       (Unspecified)
board.cache_hierarchy.ruby_system.m_outstandReqHistSeqr::samples      1201529                       (Unspecified)
board.cache_hierarchy.ruby_system.m_outstandReqHistSeqr::mean     1.130310                       (Unspecified)
board.cache_hierarchy.ruby_system.m_outstandReqHistSeqr::gmean     1.081822                       (Unspecified)
board.cache_hierarchy.ruby_system.m_outstandReqHistSeqr::stdev     0.451377                       (Unspecified)
board.cache_hierarchy.ruby_system.m_outstandReqHistSeqr |     1091450     90.84%     90.84% |      107545      8.95%     99.79% |        2217      0.18%     99.97% |         209      0.02%     99.99% |          66      0.01%    100.00% |          26      0.00%    100.00% |          10      0.00%    100.00% |           5      0.00%    100.00% |           1      0.00%    100.00% |           0      0.00%    100.00% (Unspecified)
board.cache_hierarchy.ruby_system.m_outstandReqHistSeqr::total      1201529                       (Unspecified)
board.cache_hierarchy.ruby_system.m_latencyHistSeqr::bucket_size          128                       (Unspecified)
board.cache_hierarchy.ruby_system.m_latencyHistSeqr::max_bucket         1279                       (Unspecified)
board.cache_hierarchy.ruby_system.m_latencyHistSeqr::samples      1201770                       (Unspecified)
board.cache_hierarchy.ruby_system.m_latencyHistSeqr::mean     1.208720                       (Unspecified)
board.cache_hierarchy.ruby_system.m_latencyHistSeqr::gmean     1.019718                       (Unspecified)
board.cache_hierarchy.ruby_system.m_latencyHistSeqr::stdev     4.583640                       (Unspecified)
board.cache_hierarchy.ruby_system.m_latencyHistSeqr |     1201584     99.98%     99.98% |         171      0.01%    100.00% |           0      0.00%    100.00% |           0      0.00%    100.00% |           0      0.00%    100.00% |           4      0.00%    100.00% |          10      0.00%    100.00% |           1      0.00%    100.00% |           0      0.00%    100.00% |           0      0.00%    100.00% (Unspecified)
board.cache_hierarchy.ruby_system.m_latencyHistSeqr::total      1201770                       (Unspecified)
board.cache_hierarchy.ruby_system.m_hitLatencyHistSeqr::bucket_size           16                       (Unspecified)
board.cache_hierarchy.ruby_system.m_hitLatencyHistSeqr::max_bucket          159                       (Unspecified)
board.cache_hierarchy.ruby_system.m_hitLatencyHistSeqr::samples      1194750                       (Unspecified)
board.cache_hierarchy.ruby_system.m_hitLatencyHistSeqr::mean     1.000655                       (Unspecified)
board.cache_hierarchy.ruby_system.m_hitLatencyHistSeqr::gmean     1.000164                       (Unspecified)
board.cache_hierarchy.ruby_system.m_hitLatencyHistSeqr::stdev     0.206530                       (Unspecified)
board.cache_hierarchy.ruby_system.m_hitLatencyHistSeqr |     1194744    100.00%    100.00% |           0      0.00%    100.00% |           0      0.00%    100.00% |           1      0.00%    100.00% |           1      0.00%    100.00% |           2      0.00%    100.00% |           1      0.00%    100.00% |           1      0.00%    100.00% |           0      0.00%    100.00% |           0      0.00%    100.00% (Unspecified)
board.cache_hierarchy.ruby_system.m_hitLatencyHistSeqr::total      1194750                       (Unspecified)
board.cache_hierarchy.ruby_system.m_missLatencyHistSeqr::bucket_size          128                       (Unspecified)
board.cache_hierarchy.ruby_system.m_missLatencyHistSeqr::max_bucket         1279                       (Unspecified)
board.cache_hierarchy.ruby_system.m_missLatencyHistSeqr::samples         7020                       (Unspecified)
board.cache_hierarchy.ruby_system.m_missLatencyHistSeqr::mean    36.619801                       (Unspecified)
board.cache_hierarchy.ruby_system.m_missLatencyHistSeqr::gmean    27.516883                       (Unspecified)
board.cache_hierarchy.ruby_system.m_missLatencyHistSeqr::stdev    48.254171                       (Unspecified)
board.cache_hierarchy.ruby_system.m_missLatencyHistSeqr |        6834     97.35%     97.35% |         171      2.44%     99.79% |           0      0.00%     99.79% |           0      0.00%     99.79% |           0      0.00%     99.79% |           4      0.06%     99.84% |          10      0.14%     99.99% |           1      0.01%    100.00% |           0      0.00%    100.00% |           0      0.00%    100.00% (Unspecified)
board.cache_hierarchy.ruby_system.m_missLatencyHistSeqr::total         7020                       (Unspecified)
board.cache_hierarchy.ruby_system.delayVCHist.vnet_0::bucket_size            2                       # delay histogram for vnet_0 (Unspecified)
board.cache_hierarchy.ruby_system.delayVCHist.vnet_0::max_bucket           19                       # delay histogram for vnet_0 (Unspecified)
board.cache_hierarchy.ruby_system.delayVCHist.vnet_0::samples        11084                       # delay histogram for vnet_0 (Unspecified)
board.cache_hierarchy.ruby_system.delayVCHist.vnet_0::mean     0.283291                       # delay histogram for vnet_0 (Unspecified)
board.cache_hierarchy.ruby_system.delayVCHist.vnet_0::stdev     1.491002                       # delay histogram for vnet_0 (Unspecified)
board.cache_hierarchy.ruby_system.delayVCHist.vnet_0 |       10676     96.32%     96.32% |          18      0.16%     96.48% |          13      0.12%     96.60% |          13      0.12%     96.72% |         354      3.19%     99.91% |           3      0.03%     99.94% |           1      0.01%     99.95% |           1      0.01%     99.95% |           2      0.02%     99.97% |           3      0.03%    100.00% # delay histogram for vnet_0 (Unspecified)
board.cache_hierarchy.ruby_system.delayVCHist.vnet_0::total        11084                       # delay histogram for vnet_0 (Unspecified)
board.cache_hierarchy.ruby_system.delayVCHist.vnet_1::bucket_size            8                       # delay histogram for vnet_1 (Unspecified)
board.cache_hierarchy.ruby_system.delayVCHist.vnet_1::max_bucket           79                       # delay histogram for vnet_1 (Unspecified)
board.cache_hierarchy.ruby_system.delayVCHist.vnet_1::samples         9314                       # delay histogram for vnet_1 (Unspecified)
board.cache_hierarchy.ruby_system.delayVCHist.vnet_1::mean     0.630878                       # delay histogram for vnet_1 (Unspecified)
board.cache_hierarchy.ruby_system.delayVCHist.vnet_1::stdev     2.442091                       # delay histogram for vnet_1 (Unspecified)
board.cache_hierarchy.ruby_system.delayVCHist.vnet_1 |        8855     95.07%     95.07% |         404      4.34%     99.41% |          40      0.43%     99.84% |          12      0.13%     99.97% |           2      0.02%     99.99% |           1      0.01%    100.00% |           0      0.00%    100.00% |           0      0.00%    100.00% |           0      0.00%    100.00% |           0      0.00%    100.00% # delay histogram for vnet_1 (Unspecified)
board.cache_hierarchy.ruby_system.delayVCHist.vnet_1::total         9314                       # delay histogram for vnet_1 (Unspecified)
board.cache_hierarchy.ruby_system.delayVCHist.vnet_2::bucket_size            1                       # delay histogram for vnet_2 (Unspecified)
board.cache_hierarchy.ruby_system.delayVCHist.vnet_2::max_bucket            9                       # delay histogram for vnet_2 (Unspecified)
board.cache_hierarchy.ruby_system.delayVCHist.vnet_2::samples         1114                       # delay histogram for vnet_2 (Unspecified)
board.cache_hierarchy.ruby_system.delayVCHist.vnet_2 |        1114    100.00%    100.00% |           0      0.00%    100.00% |           0      0.00%    100.00% |           0      0.00%    100.00% |           0      0.00%    100.00% |           0      0.00%    100.00% |           0      0.00%    100.00% |           0      0.00%    100.00% |           0      0.00%    100.00% |           0      0.00%    100.00% # delay histogram for vnet_2 (Unspecified)
board.cache_hierarchy.ruby_system.delayVCHist.vnet_2::total         1114                       # delay histogram for vnet_2 (Unspecified)
board.cache_hierarchy.ruby_system.Directory_Controller.Fetch         1055      0.00%      0.00% (Unspecified)
board.cache_hierarchy.ruby_system.Directory_Controller.Memory_Data         1055      0.00%      0.00% (Unspecified)
board.cache_hierarchy.ruby_system.Directory_Controller.I.Fetch         1055      0.00%      0.00% (Unspecified)
board.cache_hierarchy.ruby_system.Directory_Controller.IM.Memory_Data         1055      0.00%      0.00% (Unspecified)
board.cache_hierarchy.ruby_system.L1Cache_Controller.Load |       13400      3.83%      3.83% |       21091      6.03%      9.86% |       21049      6.01%     15.87% |       21043      6.01%     21.88% |       21037      6.01%     27.89% |       21033      6.01%     33.90% |       21027      6.01%     39.91% |       21026      6.01%     45.92% |       21028      6.01%     51.93% |       21029      6.01%     57.94% |       21029      6.01%     63.95% |       21031      6.01%     69.96% |       21030      6.01%     75.96% |       21031      6.01%     81.97% |       21031      6.01%     87.98% |       21031      6.01%     93.99% |       21026      6.01%    100.00% (Unspecified)
board.cache_hierarchy.ruby_system.L1Cache_Controller.Load::total       349972                       (Unspecified)
board.cache_hierarchy.ruby_system.L1Cache_Controller.Ifetch |       21568      3.86%      3.86% |       33585      6.00%      9.86% |       33708      6.03%     15.89% |       33613      6.01%     21.89% |       33612      6.01%     27.90% |       33612      6.01%     33.91% |       33603      6.01%     39.92% |       33602      6.01%     45.93% |       33606      6.01%     51.93% |       33607      6.01%     57.94% |       33607      6.01%     63.95% |       33610      6.01%     69.96% |       33609      6.01%     75.97% |       33612      6.01%     81.97% |       33610      6.01%     87.98% |       33612      6.01%     93.99% |       33610      6.01%    100.00% (Unspecified)
board.cache_hierarchy.ruby_system.L1Cache_Controller.Ifetch::total       559386                       (Unspecified)
board.cache_hierarchy.ruby_system.L1Cache_Controller.Store |       22369      7.65%      7.65% |       17133      5.86%     13.51% |       17136      5.86%     19.37% |       16841      5.76%     25.13% |       16841      5.76%     30.89% |       16841      5.76%     36.65% |       16841      5.76%     42.41% |       16841      5.76%     48.17% |       16841      5.76%     53.93% |       16841      5.76%     59.68% |       16841      5.76%     65.44% |       16841      5.76%     71.20% |       16841      5.76%     76.96% |       16841      5.76%     82.72% |       16841      5.76%     88.48% |       16841      5.76%     94.24% |       16841      5.76%    100.00% (Unspecified)
board.cache_hierarchy.ruby_system.L1Cache_Controller.Store::total       292412                       (Unspecified)
board.cache_hierarchy.ruby_system.L1Cache_Controller.Inv |          88     35.63%     35.63% |          14      5.67%     41.30% |          12      4.86%     46.15% |          13      5.26%     51.42% |          10      4.05%     55.47% |           9      3.64%     59.11% |          10      4.05%     63.16% |           9      3.64%     66.80% |          10      4.05%     70.85% |          10      4.05%     74.90% |          11      4.45%     79.35% |          12      4.86%     84.21% |          11      4.45%     88.66% |          10      4.05%     92.71% |           9      3.64%     96.36% |           8      3.24%     99.60% |           1      0.40%    100.00% (Unspecified)
board.cache_hierarchy.ruby_system.L1Cache_Controller.Inv::total          247                       (Unspecified)
board.cache_hierarchy.ruby_system.L1Cache_Controller.L1_Replacement |         855     99.30%     99.30% |           2      0.23%     99.54% |           2      0.23%     99.77% |           2      0.23%    100.00% |           0      0.00%    100.00% |           0      0.00%    100.00% |           0      0.00%    100.00% |           0      0.00%    100.00% |           0      0.00%    100.00% |           0      0.00%    100.00% |           0      0.00%    100.00% |           0      0.00%    100.00% |           0      0.00%    100.00% |           0      0.00%    100.00% |           0      0.00%    100.00% |           0      0.00%    100.00% |           0      0.00%    100.00% (Unspecified)
board.cache_hierarchy.ruby_system.L1Cache_Controller.L1_Replacement::total          861                       (Unspecified)
board.cache_hierarchy.ruby_system.L1Cache_Controller.Fwd_GETX |          46     19.49%     19.49% |          14      5.93%     25.42% |           1      0.42%     25.85% |          13      5.51%     31.36% |          13      5.51%     36.86% |          13      5.51%     42.37% |          13      5.51%     47.88% |          13      5.51%     53.39% |          13      5.51%     58.90% |          13      5.51%     64.41% |          13      5.51%     69.92% |          13      5.51%     75.42% |          14      5.93%     81.36% |          14      5.93%     87.29% |          14      5.93%     93.22% |          14      5.93%     99.15% |           2      0.85%    100.00% (Unspecified)
board.cache_hierarchy.ruby_system.L1Cache_Controller.Fwd_GETX::total          236                       (Unspecified)
board.cache_hierarchy.ruby_system.L1Cache_Controller.Fwd_GETS |         413     65.45%     65.45% |          22      3.49%     68.94% |          12      1.90%     70.84% |          14      2.22%     73.06% |          16      2.54%     75.59% |          14      2.22%     77.81% |          14      2.22%     80.03% |          14      2.22%     82.25% |          14      2.22%     84.47% |          14      2.22%     86.69% |          14      2.22%     88.91% |          14      2.22%     91.13% |          13      2.06%     93.19% |          14      2.22%     95.40% |          12      1.90%     97.31% |          12      1.90%     99.21% |           5      0.79%    100.00% (Unspecified)
board.cache_hierarchy.ruby_system.L1Cache_Controller.Fwd_GETS::total          631                       (Unspecified)
board.cache_hierarchy.ruby_system.L1Cache_Controller.Data_Exclusive |          59      3.05%      3.05% |         139      7.18%     10.22% |         133      6.87%     17.09% |         132      6.81%     23.90% |         134      6.92%     30.82% |         132      6.81%     37.64% |         133      6.87%     44.50% |         133      6.87%     51.37% |         133      6.87%     58.23% |         133      6.87%     65.10% |         133      6.87%     71.97% |         133      6.87%     78.83% |         133      6.87%     85.70% |         128      6.61%     92.31% |          74      3.82%     96.13% |          36      1.86%     97.99% |          39      2.01%    100.00% (Unspecified)
board.cache_hierarchy.ruby_system.L1Cache_Controller.Data_Exclusive::total         1937                       (Unspecified)
board.cache_hierarchy.ruby_system.L1Cache_Controller.DataS_fromL1 |          78     12.36%     12.36% |          24      3.80%     16.16% |          27      4.28%     20.44% |          22      3.49%     23.93% |          18      2.85%     26.78% |          20      3.17%     29.95% |          16      2.54%     32.49% |          17      2.69%     35.18% |          16      2.54%     37.72% |          17      2.69%     40.41% |          17      2.69%     43.11% |          18      2.85%     45.96% |          18      2.85%     48.81% |          21      3.33%     52.14% |          76     12.04%     64.18% |         114     18.07%     82.25% |         112     17.75%    100.00% (Unspecified)
board.cache_hierarchy.ruby_system.L1Cache_Controller.DataS_fromL1::total          631                       (Unspecified)
board.cache_hierarchy.ruby_system.L1Cache_Controller.Data_all_Acks |         761     18.02%     18.02% |         251      5.94%     23.96% |         260      6.16%     30.12% |         214      5.07%     35.19% |         208      4.93%     40.11% |         208      4.93%     45.04% |         212      5.02%     50.06% |         211      5.00%     55.06% |         212      5.02%     60.08% |         211      5.00%     65.07% |         211      5.00%     70.07% |         210      4.97%     75.04% |         210      4.97%     80.01% |         212      5.02%     85.03% |         211      5.00%     90.03% |         211      5.00%     95.03% |         210      4.97%    100.00% (Unspecified)
board.cache_hierarchy.ruby_system.L1Cache_Controller.Data_all_Acks::total         4223                       (Unspecified)
board.cache_hierarchy.ruby_system.L1Cache_Controller.Ack |          40     16.19%     16.19% |          13      5.26%     21.46% |          11      4.45%     25.91% |          14      5.67%     31.58% |          12      4.86%     36.44% |          12      4.86%     41.30% |          13      5.26%     46.56% |          13      5.26%     51.82% |          13      5.26%     57.09% |          13      5.26%     62.35% |          13      5.26%     67.61% |          14      5.67%     73.28% |          14      5.67%     78.95% |          13      5.26%     84.21% |          13      5.26%     89.47% |          13      5.26%     94.74% |          13      5.26%    100.00% (Unspecified)
board.cache_hierarchy.ruby_system.L1Cache_Controller.Ack::total          247                       (Unspecified)
board.cache_hierarchy.ruby_system.L1Cache_Controller.Ack_all |          36     15.72%     15.72% |          12      5.24%     20.96% |          10      4.37%     25.33% |          13      5.68%     31.00% |          12      5.24%     36.24% |          12      5.24%     41.48% |          12      5.24%     46.72% |          12      5.24%     51.97% |          12      5.24%     57.21% |          12      5.24%     62.45% |          12      5.24%     67.69% |          13      5.68%     73.36% |          13      5.68%     79.04% |          12      5.24%     84.28% |          12      5.24%     89.52% |          12      5.24%     94.76% |          12      5.24%    100.00% (Unspecified)
board.cache_hierarchy.ruby_system.L1Cache_Controller.Ack_all::total          229                       (Unspecified)
board.cache_hierarchy.ruby_system.L1Cache_Controller.WB_Ack |         361    100.00%    100.00% |           0      0.00%    100.00% |           0      0.00%    100.00% |           0      0.00%    100.00% |           0      0.00%    100.00% |           0      0.00%    100.00% |           0      0.00%    100.00% |           0      0.00%    100.00% |           0      0.00%    100.00% |           0      0.00%    100.00% |           0      0.00%    100.00% |           0      0.00%    100.00% |           0      0.00%    100.00% |           0      0.00%    100.00% |           0      0.00%    100.00% |           0      0.00%    100.00% |           0      0.00%    100.00% (Unspecified)
board.cache_hierarchy.ruby_system.L1Cache_Controller.WB_Ack::total          361                       (Unspecified)
board.cache_hierarchy.ruby_system.L1Cache_Controller.NP.Load |         132      4.80%      4.80% |         159      5.78%     10.58% |         161      5.85%     16.43% |         164      5.96%     22.39% |         164      5.96%     28.35% |         164      5.96%     34.31% |         164      5.96%     40.28% |         164      5.96%     46.24% |         164      5.96%     52.20% |         164      5.96%     58.16% |         164      5.96%     64.12% |         164      5.96%     70.08% |         164      5.96%     76.05% |         164      5.96%     82.01% |         165      6.00%     88.00% |         165      6.00%     94.00% |         165      6.00%    100.00% (Unspecified)
board.cache_hierarchy.ruby_system.L1Cache_Controller.NP.Load::total         2751                       (Unspecified)
board.cache_hierarchy.ruby_system.L1Cache_Controller.NP.Ifetch |         329     10.68%     10.68% |         190      6.17%     16.85% |         193      6.27%     23.12% |         173      5.62%     28.73% |         168      5.45%     34.19% |         168      5.45%     39.64% |         169      5.49%     45.13% |         169      5.49%     50.62% |         169      5.49%     56.10% |         169      5.49%     61.59% |         169      5.49%     67.08% |         169      5.49%     72.56% |         169      5.49%     78.05% |         169      5.49%     83.54% |         169      5.49%     89.03% |         169      5.49%     94.51% |         169      5.49%    100.00% (Unspecified)
board.cache_hierarchy.ruby_system.L1Cache_Controller.NP.Ifetch::total         3080                       (Unspecified)
board.cache_hierarchy.ruby_system.L1Cache_Controller.NP.Store |         394     44.37%     44.37% |          60      6.76%     51.13% |          59      6.64%     57.77% |          27      3.04%     60.81% |          27      3.04%     63.85% |          27      3.04%     66.89% |          27      3.04%     69.93% |          27      3.04%     72.97% |          27      3.04%     76.01% |          27      3.04%     79.05% |          27      3.04%     82.09% |          27      3.04%     85.14% |          27      3.04%     88.18% |          27      3.04%     91.22% |          26      2.93%     94.14% |          26      2.93%     97.07% |          26      2.93%    100.00% (Unspecified)
board.cache_hierarchy.ruby_system.L1Cache_Controller.NP.Store::total          888                       (Unspecified)
board.cache_hierarchy.ruby_system.L1Cache_Controller.NP.Inv |          12    100.00%    100.00% |           0      0.00%    100.00% |           0      0.00%    100.00% |           0      0.00%    100.00% |           0      0.00%    100.00% |           0      0.00%    100.00% |           0      0.00%    100.00% |           0      0.00%    100.00% |           0      0.00%    100.00% |           0      0.00%    100.00% |           0      0.00%    100.00% |           0      0.00%    100.00% |           0      0.00%    100.00% |           0      0.00%    100.00% |           0      0.00%    100.00% |           0      0.00%    100.00% |           0      0.00%    100.00% (Unspecified)
board.cache_hierarchy.ruby_system.L1Cache_Controller.NP.Inv::total           12                       (Unspecified)
board.cache_hierarchy.ruby_system.L1Cache_Controller.I.Load |          37     68.52%     68.52% |           5      9.26%     77.78% |           6     11.11%     88.89% |           4      7.41%     96.30% |           0      0.00%     96.30% |           0      0.00%     96.30% |           0      0.00%     96.30% |           0      0.00%     96.30% |           0      0.00%     96.30% |           0      0.00%     96.30% |           0      0.00%     96.30% |           1      1.85%     98.15% |           1      1.85%    100.00% |           0      0.00%    100.00% |           0      0.00%    100.00% |           0      0.00%    100.00% |           0      0.00%    100.00% (Unspecified)
board.cache_hierarchy.ruby_system.L1Cache_Controller.I.Load::total           54                       (Unspecified)
board.cache_hierarchy.ruby_system.L1Cache_Controller.I.Store |           6     33.33%     33.33% |           0      0.00%     33.33% |           1      5.56%     38.89% |           0      0.00%     38.89% |           1      5.56%     44.44% |           1      5.56%     50.00% |           1      5.56%     55.56% |           1      5.56%     61.11% |           1      5.56%     66.67% |           1      5.56%     72.22% |           1      5.56%     77.78% |           0      0.00%     77.78% |           0      0.00%     77.78% |           1      5.56%     83.33% |           1      5.56%     88.89% |           1      5.56%     94.44% |           1      5.56%    100.00% (Unspecified)
board.cache_hierarchy.ruby_system.L1Cache_Controller.I.Store::total           18                       (Unspecified)
board.cache_hierarchy.ruby_system.L1Cache_Controller.I.L1_Replacement |          58    100.00%    100.00% |           0      0.00%    100.00% |           0      0.00%    100.00% |           0      0.00%    100.00% |           0      0.00%    100.00% |           0      0.00%    100.00% |           0      0.00%    100.00% |           0      0.00%    100.00% |           0      0.00%    100.00% |           0      0.00%    100.00% |           0      0.00%    100.00% |           0      0.00%    100.00% |           0      0.00%    100.00% |           0      0.00%    100.00% |           0      0.00%    100.00% |           0      0.00%    100.00% |           0      0.00%    100.00% (Unspecified)
board.cache_hierarchy.ruby_system.L1Cache_Controller.I.L1_Replacement::total           58                       (Unspecified)
board.cache_hierarchy.ruby_system.L1Cache_Controller.S.Load |         537      9.64%      9.64% |          65      1.17%     10.80% |          89      1.60%     12.40% |          98      1.76%     14.16% |          76      1.36%     15.52% |          80      1.44%     16.96% |          71      1.27%     18.23% |          75      1.35%     19.58% |          71      1.27%     20.85% |          72      1.29%     22.14% |          71      1.27%     23.42% |          71      1.27%     24.69% |          71      1.27%     25.96% |         161      2.89%     28.85% |         952     17.08%     45.94% |        1537     27.58%     73.52% |        1476     26.48%    100.00% (Unspecified)
board.cache_hierarchy.ruby_system.L1Cache_Controller.S.Load::total         5573                       (Unspecified)
board.cache_hierarchy.ruby_system.L1Cache_Controller.S.Ifetch |       21239      3.82%      3.82% |       33395      6.00%      9.82% |       33515      6.02%     15.85% |       33440      6.01%     21.86% |       33444      6.01%     27.87% |       33444      6.01%     33.88% |       33434      6.01%     39.89% |       33433      6.01%     45.90% |       33437      6.01%     51.91% |       33438      6.01%     57.92% |       33438      6.01%     63.93% |       33441      6.01%     69.94% |       33440      6.01%     75.95% |       33443      6.01%     81.97% |       33441      6.01%     87.98% |       33443      6.01%     93.99% |       33441      6.01%    100.00% (Unspecified)
board.cache_hierarchy.ruby_system.L1Cache_Controller.S.Ifetch::total       556306                       (Unspecified)
board.cache_hierarchy.ruby_system.L1Cache_Controller.S.Store |          36     15.72%     15.72% |          12      5.24%     20.96% |          10      4.37%     25.33% |          13      5.68%     31.00% |          12      5.24%     36.24% |          12      5.24%     41.48% |          12      5.24%     46.72% |          12      5.24%     51.97% |          12      5.24%     57.21% |          12      5.24%     62.45% |          12      5.24%     67.69% |          13      5.68%     73.36% |          13      5.68%     79.04% |          12      5.24%     84.28% |          12      5.24%     89.52% |          12      5.24%     94.76% |          12      5.24%    100.00% (Unspecified)
board.cache_hierarchy.ruby_system.L1Cache_Controller.S.Store::total          229                       (Unspecified)
board.cache_hierarchy.ruby_system.L1Cache_Controller.S.Inv |          76     32.34%     32.34% |          14      5.96%     38.30% |          12      5.11%     43.40% |          13      5.53%     48.94% |          10      4.26%     53.19% |           9      3.83%     57.02% |          10      4.26%     61.28% |           9      3.83%     65.11% |          10      4.26%     69.36% |          10      4.26%     73.62% |          11      4.68%     78.30% |          12      5.11%     83.40% |          11      4.68%     88.09% |          10      4.26%     92.34% |           9      3.83%     96.17% |           8      3.40%     99.57% |           1      0.43%    100.00% (Unspecified)
board.cache_hierarchy.ruby_system.L1Cache_Controller.S.Inv::total          235                       (Unspecified)
board.cache_hierarchy.ruby_system.L1Cache_Controller.S.L1_Replacement |         436     98.64%     98.64% |           2      0.45%     99.10% |           2      0.45%     99.55% |           2      0.45%    100.00% |           0      0.00%    100.00% |           0      0.00%    100.00% |           0      0.00%    100.00% |           0      0.00%    100.00% |           0      0.00%    100.00% |           0      0.00%    100.00% |           0      0.00%    100.00% |           0      0.00%    100.00% |           0      0.00%    100.00% |           0      0.00%    100.00% |           0      0.00%    100.00% |           0      0.00%    100.00% |           0      0.00%    100.00% (Unspecified)
board.cache_hierarchy.ruby_system.L1Cache_Controller.S.L1_Replacement::total          442                       (Unspecified)
board.cache_hierarchy.ruby_system.L1Cache_Controller.E.Load |        1494      5.28%      5.28% |        1923      6.79%     12.07% |        1916      6.77%     18.84% |        1916      6.77%     25.60% |        1916      6.77%     32.37% |        1916      6.77%     39.14% |        1916      6.77%     45.90% |        1916      6.77%     52.67% |        1916      6.77%     59.44% |        1916      6.77%     66.20% |        1916      6.77%     72.97% |        1916      6.77%     79.74% |        1916      6.77%     86.50% |        1826      6.45%     92.95% |        1035      3.66%     96.61% |         450      1.59%     98.20% |         510      1.80%    100.00% (Unspecified)
board.cache_hierarchy.ruby_system.L1Cache_Controller.E.Load::total        28314                       (Unspecified)
board.cache_hierarchy.ruby_system.L1Cache_Controller.E.Store |          20     83.33%     83.33% |           0      0.00%     83.33% |           1      4.17%     87.50% |           0      0.00%     87.50% |           0      0.00%     87.50% |           0      0.00%     87.50% |           0      0.00%     87.50% |           0      0.00%     87.50% |           0      0.00%     87.50% |           0      0.00%     87.50% |           0      0.00%     87.50% |           0      0.00%     87.50% |           0      0.00%     87.50% |           0      0.00%     87.50% |           1      4.17%     91.67% |           1      4.17%     95.83% |           1      4.17%    100.00% (Unspecified)
board.cache_hierarchy.ruby_system.L1Cache_Controller.E.Store::total           24                       (Unspecified)
board.cache_hierarchy.ruby_system.L1Cache_Controller.E.L1_Replacement |          11    100.00%    100.00% |           0      0.00%    100.00% |           0      0.00%    100.00% |           0      0.00%    100.00% |           0      0.00%    100.00% |           0      0.00%    100.00% |           0      0.00%    100.00% |           0      0.00%    100.00% |           0      0.00%    100.00% |           0      0.00%    100.00% |           0      0.00%    100.00% |           0      0.00%    100.00% |           0      0.00%    100.00% |           0      0.00%    100.00% |           0      0.00%    100.00% |           0      0.00%    100.00% |           0      0.00%    100.00% (Unspecified)
board.cache_hierarchy.ruby_system.L1Cache_Controller.E.L1_Replacement::total           11                       (Unspecified)
board.cache_hierarchy.ruby_system.L1Cache_Controller.E.Fwd_GETS |           7     15.56%     15.56% |           8     17.78%     33.33% |           2      4.44%     37.78% |           2      4.44%     42.22% |           4      8.89%     51.11% |           2      4.44%     55.56% |           2      4.44%     60.00% |           2      4.44%     64.44% |           2      4.44%     68.89% |           2      4.44%     73.33% |           2      4.44%     77.78% |           2      4.44%     82.22% |           2      4.44%     86.67% |           3      6.67%     93.33% |           1      2.22%     95.56% |           1      2.22%     97.78% |           1      2.22%    100.00% (Unspecified)
board.cache_hierarchy.ruby_system.L1Cache_Controller.E.Fwd_GETS::total           45                       (Unspecified)
board.cache_hierarchy.ruby_system.L1Cache_Controller.M.Load |       11200      3.58%      3.58% |       18939      6.05%      9.62% |       18877      6.03%     15.65% |       18861      6.02%     21.67% |       18881      6.03%     27.69% |       18873      6.02%     33.72% |       18876      6.03%     39.74% |       18871      6.02%     45.77% |       18877      6.03%     51.79% |       18877      6.03%     57.82% |       18878      6.03%     63.84% |       18879      6.03%     69.87% |       18878      6.03%     75.90% |       18880      6.03%     81.92% |       18879      6.03%     87.95% |       18879      6.03%     93.98% |       18875      6.02%    100.00% (Unspecified)
board.cache_hierarchy.ruby_system.L1Cache_Controller.M.Load::total       313280                       (Unspecified)
board.cache_hierarchy.ruby_system.L1Cache_Controller.M.Store |       21913      7.52%      7.52% |       17061      5.86%     13.38% |       17065      5.86%     19.24% |       16801      5.77%     25.01% |       16801      5.77%     30.78% |       16801      5.77%     36.55% |       16801      5.77%     42.31% |       16801      5.77%     48.08% |       16801      5.77%     53.85% |       16801      5.77%     59.62% |       16801      5.77%     65.39% |       16801      5.77%     71.16% |       16801      5.77%     76.93% |       16801      5.77%     82.69% |       16801      5.77%     88.46% |       16801      5.77%     94.23% |       16801      5.77%    100.00% (Unspecified)
board.cache_hierarchy.ruby_system.L1Cache_Controller.M.Store::total       291253                       (Unspecified)
board.cache_hierarchy.ruby_system.L1Cache_Controller.M.L1_Replacement |         350    100.00%    100.00% |           0      0.00%    100.00% |           0      0.00%    100.00% |           0      0.00%    100.00% |           0      0.00%    100.00% |           0      0.00%    100.00% |           0      0.00%    100.00% |           0      0.00%    100.00% |           0      0.00%    100.00% |           0      0.00%    100.00% |           0      0.00%    100.00% |           0      0.00%    100.00% |           0      0.00%    100.00% |           0      0.00%    100.00% |           0      0.00%    100.00% |           0      0.00%    100.00% |           0      0.00%    100.00% (Unspecified)
board.cache_hierarchy.ruby_system.L1Cache_Controller.M.L1_Replacement::total          350                       (Unspecified)
board.cache_hierarchy.ruby_system.L1Cache_Controller.M.Fwd_GETX |          46     19.49%     19.49% |          14      5.93%     25.42% |           1      0.42%     25.85% |          13      5.51%     31.36% |          13      5.51%     36.86% |          13      5.51%     42.37% |          13      5.51%     47.88% |          13      5.51%     53.39% |          13      5.51%     58.90% |          13      5.51%     64.41% |          13      5.51%     69.92% |          13      5.51%     75.42% |          14      5.93%     81.36% |          14      5.93%     87.29% |          14      5.93%     93.22% |          14      5.93%     99.15% |           2      0.85%    100.00% (Unspecified)
board.cache_hierarchy.ruby_system.L1Cache_Controller.M.Fwd_GETX::total          236                       (Unspecified)
board.cache_hierarchy.ruby_system.L1Cache_Controller.M.Fwd_GETS |         406     69.28%     69.28% |          14      2.39%     71.67% |          10      1.71%     73.38% |          12      2.05%     75.43% |          12      2.05%     77.47% |          12      2.05%     79.52% |          12      2.05%     81.57% |          12      2.05%     83.62% |          12      2.05%     85.67% |          12      2.05%     87.71% |          12      2.05%     89.76% |          12      2.05%     91.81% |          11      1.88%     93.69% |          11      1.88%     95.56% |          11      1.88%     97.44% |          11      1.88%     99.32% |           4      0.68%    100.00% (Unspecified)
board.cache_hierarchy.ruby_system.L1Cache_Controller.M.Fwd_GETS::total          586                       (Unspecified)
board.cache_hierarchy.ruby_system.L1Cache_Controller.IS.Data_Exclusive |          59      3.05%      3.05% |         139      7.18%     10.22% |         133      6.87%     17.09% |         132      6.81%     23.90% |         134      6.92%     30.82% |         132      6.81%     37.64% |         133      6.87%     44.50% |         133      6.87%     51.37% |         133      6.87%     58.23% |         133      6.87%     65.10% |         133      6.87%     71.97% |         133      6.87%     78.83% |         133      6.87%     85.70% |         128      6.61%     92.31% |          74      3.82%     96.13% |          36      1.86%     97.99% |          39      2.01%    100.00% (Unspecified)
board.cache_hierarchy.ruby_system.L1Cache_Controller.IS.Data_Exclusive::total         1937                       (Unspecified)
board.cache_hierarchy.ruby_system.L1Cache_Controller.IS.DataS_fromL1 |          78     12.36%     12.36% |          24      3.80%     16.16% |          27      4.28%     20.44% |          22      3.49%     23.93% |          18      2.85%     26.78% |          20      3.17%     29.95% |          16      2.54%     32.49% |          17      2.69%     35.18% |          16      2.54%     37.72% |          17      2.69%     40.41% |          17      2.69%     43.11% |          18      2.85%     45.96% |          18      2.85%     48.81% |          21      3.33%     52.14% |          76     12.04%     64.18% |         114     18.07%     82.25% |         112     17.75%    100.00% (Unspecified)
board.cache_hierarchy.ruby_system.L1Cache_Controller.IS.DataS_fromL1::total          631                       (Unspecified)
board.cache_hierarchy.ruby_system.L1Cache_Controller.IS.Data_all_Acks |         361     10.88%     10.88% |         191      5.76%     16.64% |         200      6.03%     22.67% |         187      5.64%     28.31% |         180      5.43%     33.74% |         180      5.43%     39.16% |         184      5.55%     44.71% |         183      5.52%     50.23% |         184      5.55%     55.77% |         183      5.52%     61.29% |         183      5.52%     66.81% |         183      5.52%     72.32% |         183      5.52%     77.84% |         184      5.55%     83.39% |         184      5.55%     88.94% |         184      5.55%     94.48% |         183      5.52%    100.00% (Unspecified)
board.cache_hierarchy.ruby_system.L1Cache_Controller.IS.Data_all_Acks::total         3317                       (Unspecified)
board.cache_hierarchy.ruby_system.L1Cache_Controller.IM.Data_all_Acks |         400     44.15%     44.15% |          60      6.62%     50.77% |          60      6.62%     57.40% |          27      2.98%     60.38% |          28      3.09%     63.47% |          28      3.09%     66.56% |          28      3.09%     69.65% |          28      3.09%     72.74% |          28      3.09%     75.83% |          28      3.09%     78.92% |          28      3.09%     82.01% |          27      2.98%     84.99% |          27      2.98%     87.97% |          28      3.09%     91.06% |          27      2.98%     94.04% |          27      2.98%     97.02% |          27      2.98%    100.00% (Unspecified)
board.cache_hierarchy.ruby_system.L1Cache_Controller.IM.Data_all_Acks::total          906                       (Unspecified)
board.cache_hierarchy.ruby_system.L1Cache_Controller.SM.Ack |          40     16.19%     16.19% |          13      5.26%     21.46% |          11      4.45%     25.91% |          14      5.67%     31.58% |          12      4.86%     36.44% |          12      4.86%     41.30% |          13      5.26%     46.56% |          13      5.26%     51.82% |          13      5.26%     57.09% |          13      5.26%     62.35% |          13      5.26%     67.61% |          14      5.67%     73.28% |          14      5.67%     78.95% |          13      5.26%     84.21% |          13      5.26%     89.47% |          13      5.26%     94.74% |          13      5.26%    100.00% (Unspecified)
board.cache_hierarchy.ruby_system.L1Cache_Controller.SM.Ack::total          247                       (Unspecified)
board.cache_hierarchy.ruby_system.L1Cache_Controller.SM.Ack_all |          36     15.72%     15.72% |          12      5.24%     20.96% |          10      4.37%     25.33% |          13      5.68%     31.00% |          12      5.24%     36.24% |          12      5.24%     41.48% |          12      5.24%     46.72% |          12      5.24%     51.97% |          12      5.24%     57.21% |          12      5.24%     62.45% |          12      5.24%     67.69% |          13      5.68%     73.36% |          13      5.68%     79.04% |          12      5.24%     84.28% |          12      5.24%     89.52% |          12      5.24%     94.76% |          12      5.24%    100.00% (Unspecified)
board.cache_hierarchy.ruby_system.L1Cache_Controller.SM.Ack_all::total          229                       (Unspecified)
board.cache_hierarchy.ruby_system.L1Cache_Controller.M_I.WB_Ack |         361    100.00%    100.00% |           0      0.00%    100.00% |           0      0.00%    100.00% |           0      0.00%    100.00% |           0      0.00%    100.00% |           0      0.00%    100.00% |           0      0.00%    100.00% |           0      0.00%    100.00% |           0      0.00%    100.00% |           0      0.00%    100.00% |           0      0.00%    100.00% |           0      0.00%    100.00% |           0      0.00%    100.00% |           0      0.00%    100.00% |           0      0.00%    100.00% |           0      0.00%    100.00% |           0      0.00%    100.00% (Unspecified)
board.cache_hierarchy.ruby_system.L1Cache_Controller.M_I.WB_Ack::total          361                       (Unspecified)
board.cache_hierarchy.ruby_system.L2Cache_Controller.L1_GET_INSTR |         195      6.33%      6.33% |         138      4.48%     10.81% |         144      4.68%     15.49% |         175      5.68%     21.17% |         203      6.59%     27.76% |         219      7.11%     34.87% |         221      7.18%     42.05% |         173      5.62%     47.66% |         179      5.81%     53.47% |         202      6.56%     60.03% |         180      5.84%     65.88% |         196      6.36%     72.24% |         204      6.62%     78.86% |         197      6.40%     85.26% |         226      7.34%     92.60% |         228      7.40%    100.00% (Unspecified)
board.cache_hierarchy.ruby_system.L2Cache_Controller.L1_GET_INSTR::total         3080                       (Unspecified)
board.cache_hierarchy.ruby_system.L2Cache_Controller.L1_GETS |         148      5.27%      5.27% |         209      7.45%     12.72% |         198      7.06%     19.78% |         205      7.31%     27.08% |         184      6.56%     33.64% |         184      6.56%     40.20% |         175      6.24%     46.44% |         139      4.95%     51.39% |         154      5.49%     56.88% |         186      6.63%     63.51% |         186      6.63%     70.14% |         132      4.70%     74.84% |         173      6.17%     81.00% |         165      5.88%     86.89% |         186      6.63%     93.51% |         182      6.49%    100.00% (Unspecified)
board.cache_hierarchy.ruby_system.L2Cache_Controller.L1_GETS::total         2806                       (Unspecified)
board.cache_hierarchy.ruby_system.L2Cache_Controller.L1_GETX |          44      4.86%      4.86% |          55      6.07%     10.93% |          46      5.08%     16.00% |          48      5.30%     21.30% |          85      9.38%     30.68% |          94     10.38%     41.06% |          75      8.28%     49.34% |          77      8.50%     57.84% |          77      8.50%     66.34% |          44      4.86%     71.19% |          45      4.97%     76.16% |          29      3.20%     79.36% |          61      6.73%     86.09% |          59      6.51%     92.60% |          40      4.42%     97.02% |          27      2.98%    100.00% (Unspecified)
board.cache_hierarchy.ruby_system.L2Cache_Controller.L1_GETX::total          906                       (Unspecified)
board.cache_hierarchy.ruby_system.L2Cache_Controller.L1_UPGRADE |           2      0.87%      0.87% |          57     24.89%     25.76% |          32     13.97%     39.74% |          15      6.55%     46.29% |          17      7.42%     53.71% |          32     13.97%     67.69% |           7      3.06%     70.74% |           5      2.18%     72.93% |           0      0.00%     72.93% |           2      0.87%     73.80% |          19      8.30%     82.10% |           0      0.00%     82.10% |          20      8.73%     90.83% |           2      0.87%     91.70% |          17      7.42%     99.13% |           2      0.87%    100.00% (Unspecified)
board.cache_hierarchy.ruby_system.L2Cache_Controller.L1_UPGRADE::total          229                       (Unspecified)
board.cache_hierarchy.ruby_system.L2Cache_Controller.L1_PUTX |           7      1.94%      1.94% |          17      4.71%      6.65% |          15      4.16%     10.80% |          33      9.14%     19.94% |          47     13.02%     32.96% |          36      9.97%     42.94% |          30      8.31%     51.25% |          15      4.16%     55.40% |          18      4.99%     60.39% |          14      3.88%     64.27% |          28      7.76%     72.02% |          11      3.05%     75.07% |          29      8.03%     83.10% |          38     10.53%     93.63% |          13      3.60%     97.23% |          10      2.77%    100.00% (Unspecified)
board.cache_hierarchy.ruby_system.L2Cache_Controller.L1_PUTX::total          361                       (Unspecified)
board.cache_hierarchy.ruby_system.L2Cache_Controller.Mem_Data |          54      5.12%      5.12% |          68      6.45%     11.56% |          72      6.82%     18.39% |          74      7.01%     25.40% |          88      8.34%     33.74% |          89      8.44%     42.18% |          74      7.01%     49.19% |          67      6.35%     55.55% |          64      6.07%     61.61% |          66      6.26%     67.87% |          48      4.55%     72.42% |          36      3.41%     75.83% |          56      5.31%     81.14% |          67      6.35%     87.49% |          65      6.16%     93.65% |          67      6.35%    100.00% (Unspecified)
board.cache_hierarchy.ruby_system.L2Cache_Controller.Mem_Data::total         1055                       (Unspecified)
board.cache_hierarchy.ruby_system.L2Cache_Controller.WB_Data |          26      4.44%      4.44% |          93     15.87%     20.31% |          67     11.43%     31.74% |          32      5.46%     37.20% |          34      5.80%     43.00% |          57      9.73%     52.73% |          23      3.92%     56.66% |          21      3.58%     60.24% |          20      3.41%     63.65% |          39      6.66%     70.31% |          36      6.14%     76.45% |          20      3.41%     79.86% |          38      6.48%     86.35% |          24      4.10%     90.44% |          34      5.80%     96.25% |          22      3.75%    100.00% (Unspecified)
board.cache_hierarchy.ruby_system.L2Cache_Controller.WB_Data::total          586                       (Unspecified)
board.cache_hierarchy.ruby_system.L2Cache_Controller.WB_Data_clean |          12     26.67%     26.67% |           0      0.00%     26.67% |           1      2.22%     28.89% |          18     40.00%     68.89% |           1      2.22%     71.11% |           1      2.22%     73.33% |           1      2.22%     75.56% |           0      0.00%     75.56% |           2      4.44%     80.00% |           1      2.22%     82.22% |           2      4.44%     86.67% |           0      0.00%     86.67% |           1      2.22%     88.89% |           1      2.22%     91.11% |           2      4.44%     95.56% |           2      4.44%    100.00% (Unspecified)
board.cache_hierarchy.ruby_system.L2Cache_Controller.WB_Data_clean::total           45                       (Unspecified)
board.cache_hierarchy.ruby_system.L2Cache_Controller.Unblock |          38      6.02%      6.02% |          93     14.74%     20.76% |          68     10.78%     31.54% |          50      7.92%     39.46% |          35      5.55%     45.01% |          58      9.19%     54.20% |          24      3.80%     58.00% |          21      3.33%     61.33% |          22      3.49%     64.82% |          40      6.34%     71.16% |          38      6.02%     77.18% |          20      3.17%     80.35% |          39      6.18%     86.53% |          25      3.96%     90.49% |          36      5.71%     96.20% |          24      3.80%    100.00% (Unspecified)
board.cache_hierarchy.ruby_system.L2Cache_Controller.Unblock::total          631                       (Unspecified)
board.cache_hierarchy.ruby_system.L2Cache_Controller.Exclusive_Unblock |         153      4.98%      4.98% |         226      7.36%     12.34% |         193      6.28%     18.62% |         194      6.32%     24.93% |         237      7.71%     32.65% |         252      8.20%     40.85% |         203      6.61%     47.46% |         199      6.48%     53.94% |         197      6.41%     60.35% |         175      5.70%     66.05% |         181      5.89%     71.94% |         141      4.59%     76.53% |         200      6.51%     83.04% |         186      6.05%     89.10% |         177      5.76%     94.86% |         158      5.14%    100.00% (Unspecified)
board.cache_hierarchy.ruby_system.L2Cache_Controller.Exclusive_Unblock::total         3072                       (Unspecified)
board.cache_hierarchy.ruby_system.L2Cache_Controller.NP.L1_GET_INSTR |          25      6.54%      6.54% |          24      6.28%     12.83% |          28      7.33%     20.16% |          29      7.59%     27.75% |          27      7.07%     34.82% |          27      7.07%     41.88% |          26      6.81%     48.69% |          22      5.76%     54.45% |          18      4.71%     59.16% |          20      5.24%     64.40% |          19      4.97%     69.37% |          22      5.76%     75.13% |          26      6.81%     81.94% |          22      5.76%     87.70% |          23      6.02%     93.72% |          24      6.28%    100.00% (Unspecified)
board.cache_hierarchy.ruby_system.L2Cache_Controller.NP.L1_GET_INSTR::total          382                       (Unspecified)
board.cache_hierarchy.ruby_system.L2Cache_Controller.NP.L1_GETS |           0      0.00%      0.00% |           2      3.08%      3.08% |           0      0.00%      3.08% |           0      0.00%      3.08% |          16     24.62%     27.69% |           1      1.54%     29.23% |           2      3.08%     32.31% |           1      1.54%     33.85% |           1      1.54%     35.38% |          17     26.15%     61.54% |           1      1.54%     63.08% |           1      1.54%     64.62% |           1      1.54%     66.15% |           1      1.54%     67.69% |           4      6.15%     73.85% |          17     26.15%    100.00% (Unspecified)
board.cache_hierarchy.ruby_system.L2Cache_Controller.NP.L1_GETS::total           65                       (Unspecified)
board.cache_hierarchy.ruby_system.L2Cache_Controller.NP.L1_GETX |          29      4.77%      4.77% |          42      6.91%     11.68% |          44      7.24%     18.91% |          45      7.40%     26.32% |          45      7.40%     33.72% |          61     10.03%     43.75% |          46      7.57%     51.32% |          44      7.24%     58.55% |          45      7.40%     65.95% |          29      4.77%     70.72% |          28      4.61%     75.33% |          13      2.14%     77.47% |          29      4.77%     82.24% |          44      7.24%     89.47% |          38      6.25%     95.72% |          26      4.28%    100.00% (Unspecified)
board.cache_hierarchy.ruby_system.L2Cache_Controller.NP.L1_GETX::total          608                       (Unspecified)
board.cache_hierarchy.ruby_system.L2Cache_Controller.SS.L1_GET_INSTR |         170      6.31%      6.31% |         114      4.23%     10.53% |         116      4.30%     14.84% |         146      5.42%     20.25% |         176      6.53%     26.78% |         192      7.12%     33.90% |         194      7.20%     41.10% |         151      5.60%     46.70% |         161      5.97%     52.67% |         181      6.71%     59.38% |         161      5.97%     65.36% |         174      6.45%     71.81% |         178      6.60%     78.41% |         175      6.49%     84.90% |         203      7.53%     92.43% |         204      7.57%    100.00% (Unspecified)
board.cache_hierarchy.ruby_system.L2Cache_Controller.SS.L1_GET_INSTR::total         2696                       (Unspecified)
board.cache_hierarchy.ruby_system.L2Cache_Controller.SS.L1_GETS |           3      1.27%      1.27% |           2      0.84%      2.11% |          15      6.33%      8.44% |          24     10.13%     18.57% |          14      5.91%     24.47% |           0      0.00%     24.47% |          30     12.66%     37.13% |           1      0.42%     37.55% |          12      5.06%     42.62% |          17      7.17%     49.79% |          30     12.66%     62.45% |           0      0.00%     62.45% |          15      6.33%     68.78% |          15      6.33%     75.11% |          30     12.66%     87.76% |          29     12.24%    100.00% (Unspecified)
board.cache_hierarchy.ruby_system.L2Cache_Controller.SS.L1_GETS::total          237                       (Unspecified)
board.cache_hierarchy.ruby_system.L2Cache_Controller.SS.L1_UPGRADE |           2      0.87%      0.87% |          57     24.89%     25.76% |          32     13.97%     39.74% |          15      6.55%     46.29% |          17      7.42%     53.71% |          32     13.97%     67.69% |           7      3.06%     70.74% |           5      2.18%     72.93% |           0      0.00%     72.93% |           2      0.87%     73.80% |          19      8.30%     82.10% |           0      0.00%     82.10% |          20      8.73%     90.83% |           2      0.87%     91.70% |          17      7.42%     99.13% |           2      0.87%    100.00% (Unspecified)
board.cache_hierarchy.ruby_system.L2Cache_Controller.SS.L1_UPGRADE::total          229                       (Unspecified)
board.cache_hierarchy.ruby_system.L2Cache_Controller.M.L1_GETS |         107      5.72%      5.72% |         112      5.98%     11.70% |         115      6.14%     17.84% |         131      7.00%     24.84% |         119      6.36%     31.20% |         125      6.68%     37.87% |         119      6.36%     44.23% |         116      6.20%     50.43% |         119      6.36%     56.78% |         112      5.98%     62.77% |         116      6.20%     68.96% |         111      5.93%     74.89% |         118      6.30%     81.20% |         124      6.62%     87.82% |         116      6.20%     94.02% |         112      5.98%    100.00% (Unspecified)
board.cache_hierarchy.ruby_system.L2Cache_Controller.M.L1_GETS::total         1872                       (Unspecified)
board.cache_hierarchy.ruby_system.L2Cache_Controller.M.L1_GETX |           1      1.61%      1.61% |           2      3.23%      4.84% |           2      3.23%      8.06% |           3      4.84%     12.90% |          21     33.87%     46.77% |           3      4.84%     51.61% |           1      1.61%     53.23% |           3      4.84%     58.06% |           2      3.23%     61.29% |           1      1.61%     62.90% |           2      3.23%     66.13% |           2      3.23%     69.35% |          15     24.19%     93.55% |           1      1.61%     95.16% |           2      3.23%     98.39% |           1      1.61%    100.00% (Unspecified)
board.cache_hierarchy.ruby_system.L2Cache_Controller.M.L1_GETX::total           62                       (Unspecified)
board.cache_hierarchy.ruby_system.L2Cache_Controller.MT.L1_GETS |          38      6.02%      6.02% |          93     14.74%     20.76% |          68     10.78%     31.54% |          50      7.92%     39.46% |          35      5.55%     45.01% |          58      9.19%     54.20% |          24      3.80%     58.00% |          21      3.33%     61.33% |          22      3.49%     64.82% |          40      6.34%     71.16% |          38      6.02%     77.18% |          20      3.17%     80.35% |          39      6.18%     86.53% |          25      3.96%     90.49% |          36      5.71%     96.20% |          24      3.80%    100.00% (Unspecified)
board.cache_hierarchy.ruby_system.L2Cache_Controller.MT.L1_GETS::total          631                       (Unspecified)
board.cache_hierarchy.ruby_system.L2Cache_Controller.MT.L1_GETX |          14      5.93%      5.93% |          11      4.66%     10.59% |           0      0.00%     10.59% |           0      0.00%     10.59% |          19      8.05%     18.64% |          30     12.71%     31.36% |          28     11.86%     43.22% |          30     12.71%     55.93% |          30     12.71%     68.64% |          14      5.93%     74.58% |          15      6.36%     80.93% |          14      5.93%     86.86% |          17      7.20%     94.07% |          14      5.93%    100.00% |           0      0.00%    100.00% |           0      0.00%    100.00% (Unspecified)
board.cache_hierarchy.ruby_system.L2Cache_Controller.MT.L1_GETX::total          236                       (Unspecified)
board.cache_hierarchy.ruby_system.L2Cache_Controller.MT.L1_PUTX |           7      1.94%      1.94% |          17      4.71%      6.65% |          15      4.16%     10.80% |          33      9.14%     19.94% |          47     13.02%     32.96% |          36      9.97%     42.94% |          30      8.31%     51.25% |          15      4.16%     55.40% |          18      4.99%     60.39% |          14      3.88%     64.27% |          28      7.76%     72.02% |          11      3.05%     75.07% |          29      8.03%     83.10% |          38     10.53%     93.63% |          13      3.60%     97.23% |          10      2.77%    100.00% (Unspecified)
board.cache_hierarchy.ruby_system.L2Cache_Controller.MT.L1_PUTX::total          361                       (Unspecified)
board.cache_hierarchy.ruby_system.L2Cache_Controller.ISS.Mem_Data |           0      0.00%      0.00% |           2      3.08%      3.08% |           0      0.00%      3.08% |           0      0.00%      3.08% |          16     24.62%     27.69% |           1      1.54%     29.23% |           2      3.08%     32.31% |           1      1.54%     33.85% |           1      1.54%     35.38% |          17     26.15%     61.54% |           1      1.54%     63.08% |           1      1.54%     64.62% |           1      1.54%     66.15% |           1      1.54%     67.69% |           4      6.15%     73.85% |          17     26.15%    100.00% (Unspecified)
board.cache_hierarchy.ruby_system.L2Cache_Controller.ISS.Mem_Data::total           65                       (Unspecified)
board.cache_hierarchy.ruby_system.L2Cache_Controller.IS.L1_GET_INSTR |           0      0.00%      0.00% |           0      0.00%      0.00% |           0      0.00%      0.00% |           0      0.00%      0.00% |           0      0.00%      0.00% |           0      0.00%      0.00% |           1     50.00%     50.00% |           0      0.00%     50.00% |           0      0.00%     50.00% |           1     50.00%    100.00% |           0      0.00%    100.00% |           0      0.00%    100.00% |           0      0.00%    100.00% |           0      0.00%    100.00% |           0      0.00%    100.00% |           0      0.00%    100.00% (Unspecified)
board.cache_hierarchy.ruby_system.L2Cache_Controller.IS.L1_GET_INSTR::total            2                       (Unspecified)
board.cache_hierarchy.ruby_system.L2Cache_Controller.IS.Mem_Data |          25      6.54%      6.54% |          24      6.28%     12.83% |          28      7.33%     20.16% |          29      7.59%     27.75% |          27      7.07%     34.82% |          27      7.07%     41.88% |          26      6.81%     48.69% |          22      5.76%     54.45% |          18      4.71%     59.16% |          20      5.24%     64.40% |          19      4.97%     69.37% |          22      5.76%     75.13% |          26      6.81%     81.94% |          22      5.76%     87.70% |          23      6.02%     93.72% |          24      6.28%    100.00% (Unspecified)
board.cache_hierarchy.ruby_system.L2Cache_Controller.IS.Mem_Data::total          382                       (Unspecified)
board.cache_hierarchy.ruby_system.L2Cache_Controller.IM.Mem_Data |          29      4.77%      4.77% |          42      6.91%     11.68% |          44      7.24%     18.91% |          45      7.40%     26.32% |          45      7.40%     33.72% |          61     10.03%     43.75% |          46      7.57%     51.32% |          44      7.24%     58.55% |          45      7.40%     65.95% |          29      4.77%     70.72% |          28      4.61%     75.33% |          13      2.14%     77.47% |          29      4.77%     82.24% |          44      7.24%     89.47% |          38      6.25%     95.72% |          26      4.28%    100.00% (Unspecified)
board.cache_hierarchy.ruby_system.L2Cache_Controller.IM.Mem_Data::total          608                       (Unspecified)
board.cache_hierarchy.ruby_system.L2Cache_Controller.SS_MB.Exclusive_Unblock |           2      0.87%      0.87% |          57     24.89%     25.76% |          32     13.97%     39.74% |          15      6.55%     46.29% |          17      7.42%     53.71% |          32     13.97%     67.69% |           7      3.06%     70.74% |           5      2.18%     72.93% |           0      0.00%     72.93% |           2      0.87%     73.80% |          19      8.30%     82.10% |           0      0.00%     82.10% |          20      8.73%     90.83% |           2      0.87%     91.70% |          17      7.42%     99.13% |           2      0.87%    100.00% (Unspecified)
board.cache_hierarchy.ruby_system.L2Cache_Controller.SS_MB.Exclusive_Unblock::total          229                       (Unspecified)
board.cache_hierarchy.ruby_system.L2Cache_Controller.MT_MB.Exclusive_Unblock |         151      5.31%      5.31% |         169      5.94%     11.26% |         161      5.66%     16.92% |         179      6.30%     23.21% |         220      7.74%     30.95% |         220      7.74%     38.69% |         196      6.89%     45.59% |         194      6.82%     52.41% |         197      6.93%     59.34% |         173      6.09%     65.42% |         162      5.70%     71.12% |         141      4.96%     76.08% |         180      6.33%     82.41% |         184      6.47%     88.88% |         160      5.63%     94.51% |         156      5.49%    100.00% (Unspecified)
board.cache_hierarchy.ruby_system.L2Cache_Controller.MT_MB.Exclusive_Unblock::total         2843                       (Unspecified)
board.cache_hierarchy.ruby_system.L2Cache_Controller.MT_IIB.L1_GETS |           0      0.00%      0.00% |           0      0.00%      0.00% |           0      0.00%      0.00% |           0      0.00%      0.00% |           0      0.00%      0.00% |           0      0.00%      0.00% |           0      0.00%      0.00% |           0      0.00%      0.00% |           0      0.00%      0.00% |           0      0.00%      0.00% |           1    100.00%    100.00% |           0      0.00%    100.00% |           0      0.00%    100.00% |           0      0.00%    100.00% |           0      0.00%    100.00% |           0      0.00%    100.00% (Unspecified)
board.cache_hierarchy.ruby_system.L2Cache_Controller.MT_IIB.L1_GETS::total            1                       (Unspecified)
board.cache_hierarchy.ruby_system.L2Cache_Controller.MT_IIB.WB_Data |          25      4.75%      4.75% |          63     11.98%     16.73% |          65     12.36%     29.09% |          30      5.70%     34.79% |          32      6.08%     40.87% |          56     10.65%     51.52% |          22      4.18%     55.70% |          20      3.80%     59.51% |          19      3.61%     63.12% |          37      7.03%     70.15% |          24      4.56%     74.71% |          19      3.61%     78.33% |          37      7.03%     85.36% |          23      4.37%     89.73% |          33      6.27%     96.01% |          21      3.99%    100.00% (Unspecified)
board.cache_hierarchy.ruby_system.L2Cache_Controller.MT_IIB.WB_Data::total          526                       (Unspecified)
board.cache_hierarchy.ruby_system.L2Cache_Controller.MT_IIB.WB_Data_clean |          12     40.00%     40.00% |           0      0.00%     40.00% |           1      3.33%     43.33% |           4     13.33%     56.67% |           1      3.33%     60.00% |           1      3.33%     63.33% |           1      3.33%     66.67% |           0      0.00%     66.67% |           1      3.33%     70.00% |           1      3.33%     73.33% |           2      6.67%     80.00% |           0      0.00%     80.00% |           1      3.33%     83.33% |           1      3.33%     86.67% |           2      6.67%     93.33% |           2      6.67%    100.00% (Unspecified)
board.cache_hierarchy.ruby_system.L2Cache_Controller.MT_IIB.WB_Data_clean::total           30                       (Unspecified)
board.cache_hierarchy.ruby_system.L2Cache_Controller.MT_IIB.Unblock |           1      1.33%      1.33% |          30     40.00%     41.33% |           2      2.67%     44.00% |          16     21.33%     65.33% |           2      2.67%     68.00% |           1      1.33%     69.33% |           1      1.33%     70.67% |           1      1.33%     72.00% |           2      2.67%     74.67% |           2      2.67%     77.33% |          12     16.00%     93.33% |           1      1.33%     94.67% |           1      1.33%     96.00% |           1      1.33%     97.33% |           1      1.33%     98.67% |           1      1.33%    100.00% (Unspecified)
board.cache_hierarchy.ruby_system.L2Cache_Controller.MT_IIB.Unblock::total           75                       (Unspecified)
board.cache_hierarchy.ruby_system.L2Cache_Controller.MT_IB.WB_Data |           1      1.67%      1.67% |          30     50.00%     51.67% |           2      3.33%     55.00% |           2      3.33%     58.33% |           2      3.33%     61.67% |           1      1.67%     63.33% |           1      1.67%     65.00% |           1      1.67%     66.67% |           1      1.67%     68.33% |           2      3.33%     71.67% |          12     20.00%     91.67% |           1      1.67%     93.33% |           1      1.67%     95.00% |           1      1.67%     96.67% |           1      1.67%     98.33% |           1      1.67%    100.00% (Unspecified)
board.cache_hierarchy.ruby_system.L2Cache_Controller.MT_IB.WB_Data::total           60                       (Unspecified)
board.cache_hierarchy.ruby_system.L2Cache_Controller.MT_IB.WB_Data_clean |           0      0.00%      0.00% |           0      0.00%      0.00% |           0      0.00%      0.00% |          14     93.33%     93.33% |           0      0.00%     93.33% |           0      0.00%     93.33% |           0      0.00%     93.33% |           0      0.00%     93.33% |           1      6.67%    100.00% |           0      0.00%    100.00% |           0      0.00%    100.00% |           0      0.00%    100.00% |           0      0.00%    100.00% |           0      0.00%    100.00% |           0      0.00%    100.00% |           0      0.00%    100.00% (Unspecified)
board.cache_hierarchy.ruby_system.L2Cache_Controller.MT_IB.WB_Data_clean::total           15                       (Unspecified)
board.cache_hierarchy.ruby_system.L2Cache_Controller.MT_SB.Unblock |          37      6.65%      6.65% |          63     11.33%     17.99% |          66     11.87%     29.86% |          34      6.12%     35.97% |          33      5.94%     41.91% |          57     10.25%     52.16% |          23      4.14%     56.29% |          20      3.60%     59.89% |          20      3.60%     63.49% |          38      6.83%     70.32% |          26      4.68%     75.00% |          19      3.42%     78.42% |          38      6.83%     85.25% |          24      4.32%     89.57% |          35      6.29%     95.86% |          23      4.14%    100.00% (Unspecified)
board.cache_hierarchy.ruby_system.L2Cache_Controller.MT_SB.Unblock::total          556                       (Unspecified)
board.cache_hierarchy.ruby_system.RequestType.LD.latency_hist_seqr::bucket_size          128                       (Unspecified)
board.cache_hierarchy.ruby_system.RequestType.LD.latency_hist_seqr::max_bucket         1279                       (Unspecified)
board.cache_hierarchy.ruby_system.RequestType.LD.latency_hist_seqr::samples       349972                       (Unspecified)
board.cache_hierarchy.ruby_system.RequestType.LD.latency_hist_seqr::mean     1.189581                       (Unspecified)
board.cache_hierarchy.ruby_system.RequestType.LD.latency_hist_seqr::gmean     1.025236                       (Unspecified)
board.cache_hierarchy.ruby_system.RequestType.LD.latency_hist_seqr::stdev     3.265265                       (Unspecified)
board.cache_hierarchy.ruby_system.RequestType.LD.latency_hist_seqr |      349944     99.99%     99.99% |          26      0.01%    100.00% |           0      0.00%    100.00% |           0      0.00%    100.00% |           0      0.00%    100.00% |           0      0.00%    100.00% |           1      0.00%    100.00% |           1      0.00%    100.00% |           0      0.00%    100.00% |           0      0.00%    100.00% (Unspecified)
board.cache_hierarchy.ruby_system.RequestType.LD.latency_hist_seqr::total       349972                       (Unspecified)
board.cache_hierarchy.ruby_system.RequestType.LD.hit_latency_hist_seqr::bucket_size            1                       (Unspecified)
board.cache_hierarchy.ruby_system.RequestType.LD.hit_latency_hist_seqr::max_bucket            9                       (Unspecified)
board.cache_hierarchy.ruby_system.RequestType.LD.hit_latency_hist_seqr::samples       347167                       (Unspecified)
board.cache_hierarchy.ruby_system.RequestType.LD.hit_latency_hist_seqr::mean     1.000006                       (Unspecified)
board.cache_hierarchy.ruby_system.RequestType.LD.hit_latency_hist_seqr::gmean     1.000004                       (Unspecified)
board.cache_hierarchy.ruby_system.RequestType.LD.hit_latency_hist_seqr::stdev     0.002400                       (Unspecified)
board.cache_hierarchy.ruby_system.RequestType.LD.hit_latency_hist_seqr |           0      0.00%      0.00% |      347165    100.00%    100.00% |           2      0.00%    100.00% |           0      0.00%    100.00% |           0      0.00%    100.00% |           0      0.00%    100.00% |           0      0.00%    100.00% |           0      0.00%    100.00% |           0      0.00%    100.00% |           0      0.00%    100.00% (Unspecified)
board.cache_hierarchy.ruby_system.RequestType.LD.hit_latency_hist_seqr::total       347167                       (Unspecified)
board.cache_hierarchy.ruby_system.RequestType.LD.miss_latency_hist_seqr::bucket_size          128                       (Unspecified)
board.cache_hierarchy.ruby_system.RequestType.LD.miss_latency_hist_seqr::max_bucket         1279                       (Unspecified)
board.cache_hierarchy.ruby_system.RequestType.LD.miss_latency_hist_seqr::samples         2805                       (Unspecified)
board.cache_hierarchy.ruby_system.RequestType.LD.miss_latency_hist_seqr::mean    24.652763                       (Unspecified)
board.cache_hierarchy.ruby_system.RequestType.LD.miss_latency_hist_seqr::gmean    22.400599                       (Unspecified)
board.cache_hierarchy.ruby_system.RequestType.LD.miss_latency_hist_seqr::stdev    27.848977                       (Unspecified)
board.cache_hierarchy.ruby_system.RequestType.LD.miss_latency_hist_seqr |        2777     99.00%     99.00% |          26      0.93%     99.93% |           0      0.00%     99.93% |           0      0.00%     99.93% |           0      0.00%     99.93% |           0      0.00%     99.93% |           1      0.04%     99.96% |           1      0.04%    100.00% |           0      0.00%    100.00% |           0      0.00%    100.00% (Unspecified)
board.cache_hierarchy.ruby_system.RequestType.LD.miss_latency_hist_seqr::total         2805                       (Unspecified)
board.cache_hierarchy.ruby_system.RequestType.ST.latency_hist_seqr::bucket_size          128                       (Unspecified)
board.cache_hierarchy.ruby_system.RequestType.ST.latency_hist_seqr::max_bucket         1279                       (Unspecified)
board.cache_hierarchy.ruby_system.RequestType.ST.latency_hist_seqr::samples       192145                       (Unspecified)
board.cache_hierarchy.ruby_system.RequestType.ST.latency_hist_seqr::mean     1.417122                       (Unspecified)
board.cache_hierarchy.ruby_system.RequestType.ST.latency_hist_seqr::gmean     1.021835                       (Unspecified)
board.cache_hierarchy.ruby_system.RequestType.ST.latency_hist_seqr::stdev     7.851005                       (Unspecified)
board.cache_hierarchy.ruby_system.RequestType.ST.latency_hist_seqr |      192073     99.96%     99.96% |          65      0.03%    100.00% |           0      0.00%    100.00% |           0      0.00%    100.00% |           0      0.00%    100.00% |           2      0.00%    100.00% |           5      0.00%    100.00% |           0      0.00%    100.00% |           0      0.00%    100.00% |           0      0.00%    100.00% (Unspecified)
board.cache_hierarchy.ruby_system.RequestType.ST.latency_hist_seqr::total       192145                       (Unspecified)
board.cache_hierarchy.ruby_system.RequestType.ST.hit_latency_hist_seqr::bucket_size           16                       (Unspecified)
board.cache_hierarchy.ruby_system.RequestType.ST.hit_latency_hist_seqr::max_bucket          159                       (Unspecified)
board.cache_hierarchy.ruby_system.RequestType.ST.hit_latency_hist_seqr::samples       191202                       (Unspecified)
board.cache_hierarchy.ruby_system.RequestType.ST.hit_latency_hist_seqr::mean     1.003964                       (Unspecified)
board.cache_hierarchy.ruby_system.RequestType.ST.hit_latency_hist_seqr::gmean     1.000939                       (Unspecified)
board.cache_hierarchy.ruby_system.RequestType.ST.hit_latency_hist_seqr::stdev     0.516135                       (Unspecified)
board.cache_hierarchy.ruby_system.RequestType.ST.hit_latency_hist_seqr |      191196    100.00%    100.00% |           0      0.00%    100.00% |           0      0.00%    100.00% |           1      0.00%    100.00% |           1      0.00%    100.00% |           2      0.00%    100.00% |           1      0.00%    100.00% |           1      0.00%    100.00% |           0      0.00%    100.00% |           0      0.00%    100.00% (Unspecified)
board.cache_hierarchy.ruby_system.RequestType.ST.hit_latency_hist_seqr::total       191202                       (Unspecified)
board.cache_hierarchy.ruby_system.RequestType.ST.miss_latency_hist_seqr::bucket_size          128                       (Unspecified)
board.cache_hierarchy.ruby_system.RequestType.ST.miss_latency_hist_seqr::max_bucket         1279                       (Unspecified)
board.cache_hierarchy.ruby_system.RequestType.ST.miss_latency_hist_seqr::samples          943                       (Unspecified)
board.cache_hierarchy.ruby_system.RequestType.ST.miss_latency_hist_seqr::mean    85.188759                       (Unspecified)
board.cache_hierarchy.ruby_system.RequestType.ST.miss_latency_hist_seqr::gmean    67.429093                       (Unspecified)
board.cache_hierarchy.ruby_system.RequestType.ST.miss_latency_hist_seqr::stdev    73.883583                       (Unspecified)
board.cache_hierarchy.ruby_system.RequestType.ST.miss_latency_hist_seqr |         871     92.36%     92.36% |          65      6.89%     99.26% |           0      0.00%     99.26% |           0      0.00%     99.26% |           0      0.00%     99.26% |           2      0.21%     99.47% |           5      0.53%    100.00% |           0      0.00%    100.00% |           0      0.00%    100.00% |           0      0.00%    100.00% (Unspecified)
board.cache_hierarchy.ruby_system.RequestType.ST.miss_latency_hist_seqr::total          943                       (Unspecified)
board.cache_hierarchy.ruby_system.RequestType.IFETCH.latency_hist_seqr::bucket_size          128                       (Unspecified)
board.cache_hierarchy.ruby_system.RequestType.IFETCH.latency_hist_seqr::max_bucket         1279                       (Unspecified)
board.cache_hierarchy.ruby_system.RequestType.IFETCH.latency_hist_seqr::samples       559386                       (Unspecified)
board.cache_hierarchy.ruby_system.RequestType.IFETCH.latency_hist_seqr::mean     1.176583                       (Unspecified)
[...]
board.processor.cores9.core.commitStats0.committedControl::IsCall         2126                       # Class of control type instructions committed (Count)
board.processor.cores9.core.commitStats0.committedControl::IsReturn         2125                       # Class of control type instructions committed (Count)
board.processor.cores9.core.decode.idleCycles        19666                       # Number of cycles decode is idle (Cycle)
board.processor.cores9.core.decode.blockedCycles        91863                       # Number of cycles decode is blocked (Cycle)
board.processor.cores9.core.decode.runCycles        37817                       # Number of cycles decode is running (Cycle)
board.processor.cores9.core.decode.unblockCycles         8670                       # Number of cycles decode is unblocking (Cycle)
board.processor.cores9.core.decode.squashCycles         2186                       # Number of cycles decode is squashing (Cycle)
board.processor.cores9.core.decode.branchResolved        10688                       # Number of times decode resolved a branch (Count)
board.processor.cores9.core.decode.branchMispred          113                       # Number of times decode detected a branch misprediction (Count)
board.processor.cores9.core.decode.decodedInsts       344531                       # Number of instructions handled by decode (Count)
board.processor.cores9.core.decode.squashedInsts          574                       # Number of squashed instructions handled by decode (Count)
board.processor.cores9.core.executeStats0.numInsts       221326                       # Number of executed instructions (Count)
board.processor.cores9.core.executeStats0.numNop            0                       # Number of nop insts executed (Count)
board.processor.cores9.core.executeStats0.numBranches        12965                       # Number of branches executed (Count)
board.processor.cores9.core.executeStats0.numLoadInsts        56119                       # Number of load instructions executed (Count)
board.processor.cores9.core.executeStats0.numStoreInsts        16956                       # Number of stores executed (Count)
board.processor.cores9.core.executeStats0.instRate     1.380139                       # Inst execution rate ((Count/Cycle))
board.processor.cores9.core.executeStats0.numCCRegReads        35153                       # Number of times the CC registers were read (Count)
board.processor.cores9.core.executeStats0.numCCRegWrites        54628                       # Number of times the CC registers were written (Count)
board.processor.cores9.core.executeStats0.numFpRegReads           21                       # Number of times the floating registers were read (Count)
board.processor.cores9.core.executeStats0.numFpRegWrites           12                       # Number of times the floating registers were written (Count)
board.processor.cores9.core.executeStats0.numIntRegReads       281447                       # Number of times the integer registers were read (Count)
board.processor.cores9.core.executeStats0.numIntRegWrites       178458                       # Number of times the integer registers were written (Count)
board.processor.cores9.core.executeStats0.numMemRefs        73075                       # Number of memory refs (Count)
board.processor.cores9.core.executeStats0.numMiscRegReads       101040                       # Number of times the Misc registers were read (Count)
board.processor.cores9.core.executeStats0.numMiscRegWrites            1                       # Number of times the Misc registers were written (Count)
board.processor.cores9.core.executeStats0.numVecAluAccesses            0                       # Number of vector alu accesses (Count)
board.processor.cores9.core.executeStats0.numDiscardedOps            0                       # Number of ops (including micro ops) which were discarded before commit (Count)
board.processor.cores9.core.fetch.predictedBranches        19012                       # Number of branches that fetch has predicted taken (Count)
board.processor.cores9.core.fetch.cycles       121585                       # Number of cycles fetch has run and was not squashing or blocked (Cycle)
board.processor.cores9.core.fetch.squashCycles         4596                       # Number of cycles fetch has spent squashing (Cycle)
board.processor.cores9.core.fetch.miscStallCycles           32                       # Number of cycles fetch has spent waiting on interrupts, or bad addresses, or out of MSHRs (Cycle)
board.processor.cores9.core.fetch.pendingTrapStallCycles          185                       # Number of stall cycles due to pending traps (Cycle)
board.processor.cores9.core.fetch.cacheLines        33628                       # Number of cache lines fetched (Count)
board.processor.cores9.core.fetch.icacheSquashes         2139                       # Number of outstanding Icache misses that were squashed (Count)
board.processor.cores9.core.fetch.nisnDist::samples       160202                       # Number of instructions fetched each cycle (Total) (Count)
board.processor.cores9.core.fetch.nisnDist::mean     2.467510                       # Number of instructions fetched each cycle (Total) (Count)
board.processor.cores9.core.fetch.nisnDist::stdev     3.387927                       # Number of instructions fetched each cycle (Total) (Count)
board.processor.cores9.core.fetch.nisnDist::underflows            0      0.00%      0.00% # Number of instructions fetched each cycle (Total) (Count)
board.processor.cores9.core.fetch.nisnDist::0        99235     61.94%     61.94% # Number of instructions fetched each cycle (Total) (Count)
board.processor.cores9.core.fetch.nisnDist::1           74      0.05%     61.99% # Number of instructions fetched each cycle (Total) (Count)
board.processor.cores9.core.fetch.nisnDist::2         4127      2.58%     64.57% # Number of instructions fetched each cycle (Total) (Count)
board.processor.cores9.core.fetch.nisnDist::3         6232      3.89%     68.46% # Number of instructions fetched each cycle (Total) (Count)
board.processor.cores9.core.fetch.nisnDist::4         2140      1.34%     69.79% # Number of instructions fetched each cycle (Total) (Count)
board.processor.cores9.core.fetch.nisnDist::5          157      0.10%     69.89% # Number of instructions fetched each cycle (Total) (Count)
board.processor.cores9.core.fetch.nisnDist::6        10337      6.45%     76.34% # Number of instructions fetched each cycle (Total) (Count)
board.processor.cores9.core.fetch.nisnDist::7         6291      3.93%     80.27% # Number of instructions fetched each cycle (Total) (Count)
board.processor.cores9.core.fetch.nisnDist::8        31609     19.73%    100.00% # Number of instructions fetched each cycle (Total) (Count)
board.processor.cores9.core.fetch.nisnDist::overflows            0      0.00%    100.00% # Number of instructions fetched each cycle (Total) (Count)
board.processor.cores9.core.fetch.nisnDist::min_value            0                       # Number of instructions fetched each cycle (Total) (Count)
board.processor.cores9.core.fetch.nisnDist::max_value            8                       # Number of instructions fetched each cycle (Total) (Count)
board.processor.cores9.core.fetch.nisnDist::total       160202                       # Number of instructions fetched each cycle (Total) (Count)
board.processor.cores9.core.fetchStats0.numInsts       236285                       # Number of instructions fetched (thread level) (Count)
board.processor.cores9.core.fetchStats0.numOps            0                       # Number of ops (including micro ops) fetched (thread level) (Count)
board.processor.cores9.core.fetchStats0.fetchRate     1.473420                       # Number of inst fetches per cycle ((Count/Cycle))
board.processor.cores9.core.fetchStats0.numBranches        25743                       # Number of branches fetched (Count)
board.processor.cores9.core.fetchStats0.branchRate     0.160528                       # Number of branch fetches per cycle (Ratio)
board.processor.cores9.core.fetchStats0.icacheStallCycles        36102                       # ICache total stall cycles (Cycle)
board.processor.cores9.core.fetchStats0.numFetchSuspends            0                       # Number of times Execute suspended instruction fetching (Count)
board.processor.cores9.core.iew.idleCycles            0                       # Number of cycles IEW is idle (Cycle)
board.processor.cores9.core.iew.squashCycles         2186                       # Number of cycles IEW is squashing (Cycle)
board.processor.cores9.core.iew.blockCycles        51257                       # Number of cycles IEW is blocking (Cycle)
board.processor.cores9.core.iew.unblockCycles         4266                       # Number of cycles IEW is unblocking (Cycle)
board.processor.cores9.core.iew.dispatchedInsts       310915                       # Number of instructions dispatched to IQ (Count)
board.processor.cores9.core.iew.dispSquashedInsts           24                       # Number of squashed instructions skipped by dispatch (Count)
board.processor.cores9.core.iew.dispLoadInsts        76903                       # Number of dispatched load instructions (Count)
board.processor.cores9.core.iew.dispStoreInsts        25273                       # Number of dispatched store instructions (Count)
board.processor.cores9.core.iew.dispNonSpecInsts         4123                       # Number of dispatched non-speculative instructions (Count)
board.processor.cores9.core.iew.iqFullEvents           37                       # Number of times the IQ has become full, causing a stall (Count)
board.processor.cores9.core.iew.lsqFullEvents            1                       # Number of times the LSQ has become full, causing a stall (Count)
board.processor.cores9.core.iew.memOrderViolationEvents         2059                       # Number of memory order violations (Count)
board.processor.cores9.core.iew.predictedTakenIncorrect            6                       # Number of branches that were predicted taken incorrectly (Count)
board.processor.cores9.core.iew.predictedNotTakenIncorrect          134                       # Number of branches that were predicted not taken incorrectly (Count)
board.processor.cores9.core.iew.branchMispredicts          140                       # Number of branch mispredicts detected at execute (Count)
board.processor.cores9.core.iew.instsToCommit       221287                       # Cumulative count of insts sent to commit (Count)
board.processor.cores9.core.iew.writebackCount       221164                       # Cumulative count of insts written-back (Count)
board.processor.cores9.core.iew.producerInst       161778                       # Number of instructions producing a value (Count)
board.processor.cores9.core.iew.consumerInst       262512                       # Number of instructions consuming a value (Count)
board.processor.cores9.core.iew.wbRate       1.379129                       # Insts written-back per cycle ((Count/Cycle))
board.processor.cores9.core.iew.wbFanout     0.616269                       # Average fanout of values written-back ((Count/Count))
board.processor.cores9.core.interrupts.clk_domain.clock         8000                       # Clock period in ticks (Tick)
board.processor.cores9.core.lsq0.forwLoads         4302                       # Number of loads that had data forwarded from stores (Count)
board.processor.cores9.core.lsq0.squashedLoads        43564                       # Number of loads squashed (Count)
board.processor.cores9.core.lsq0.ignoredResponses            0                       # Number of memory responses ignored because the instruction is squashed (Count)
board.processor.cores9.core.lsq0.memOrderViolation         2059                       # Number of memory ordering violations (Count)
board.processor.cores9.core.lsq0.squashedStores        12544                       # Number of stores squashed (Count)
board.processor.cores9.core.lsq0.rescheduledLoads            0                       # Number of loads that were rescheduled (Count)
board.processor.cores9.core.lsq0.blockedByCache            0                       # Number of times an access to memory failed due to the cache being blocked (Count)
board.processor.cores9.core.lsq0.loadToUse::samples        33339                       # Distribution of cycle latency between the first time a load is issued and its completion (Unspecified)
board.processor.cores9.core.lsq0.loadToUse::mean     2.985153                       # Distribution of cycle latency between the first time a load is issued and its completion (Unspecified)
board.processor.cores9.core.lsq0.loadToUse::stdev     1.892561                       # Distribution of cycle latency between the first time a load is issued and its completion (Unspecified)
board.processor.cores9.core.lsq0.loadToUse::0-9        33173     99.50%     99.50% # Distribution of cycle latency between the first time a load is issued and its completion (Unspecified)
board.processor.cores9.core.lsq0.loadToUse::10-19            8      0.02%     99.53% # Distribution of cycle latency between the first time a load is issued and its completion (Unspecified)
board.processor.cores9.core.lsq0.loadToUse::20-29          141      0.42%     99.95% # Distribution of cycle latency between the first time a load is issued and its completion (Unspecified)
board.processor.cores9.core.lsq0.loadToUse::30-39           13      0.04%     99.99% # Distribution of cycle latency between the first time a load is issued and its completion (Unspecified)
board.processor.cores9.core.lsq0.loadToUse::60-69            1      0.00%     99.99% # Distribution of cycle latency between the first time a load is issued and its completion (Unspecified)
board.processor.cores9.core.lsq0.loadToUse::100-109            1      0.00%     99.99% # Distribution of cycle latency between the first time a load is issued and its completion (Unspecified)
board.processor.cores9.core.lsq0.loadToUse::110-119            1      0.00%    100.00% # Distribution of cycle latency between the first time a load is issued and its completion (Unspecified)
board.processor.cores9.core.lsq0.loadToUse::130-139            1      0.00%    100.00% # Distribution of cycle latency between the first time a load is issued and its completion (Unspecified)
board.processor.cores9.core.lsq0.loadToUse::min_value            2                       # Distribution of cycle latency between the first time a load is issued and its completion (Unspecified)
board.processor.cores9.core.lsq0.loadToUse::max_value          139                       # Distribution of cycle latency between the first time a load is issued and its completion (Unspecified)
board.processor.cores9.core.lsq0.loadToUse::total        33339                       # Distribution of cycle latency between the first time a load is issued and its completion (Unspecified)
board.processor.cores9.core.mmu.dtb.rdAccesses        56119                       # TLB accesses on read requests (Count)
board.processor.cores9.core.mmu.dtb.wrAccesses        16956                       # TLB accesses on write requests (Count)
board.processor.cores9.core.mmu.dtb.rdMisses           72                       # TLB misses on read requests (Count)
board.processor.cores9.core.mmu.dtb.wrMisses           10                       # TLB misses on write requests (Count)
board.processor.cores9.core.mmu.dtb.walker.power_state.pwrStateResidencyTicks::UNDEFINED    415056500                       # Cumulative time (in ticks) in various power states (Tick)
board.processor.cores9.core.mmu.itb.rdAccesses            0                       # TLB accesses on read requests (Count)
board.processor.cores9.core.mmu.itb.wrAccesses        33662                       # TLB accesses on write requests (Count)
board.processor.cores9.core.mmu.itb.rdMisses            0                       # TLB misses on read requests (Count)
board.processor.cores9.core.mmu.itb.wrMisses           80                       # TLB misses on write requests (Count)
board.processor.cores9.core.mmu.itb.walker.power_state.pwrStateResidencyTicks::UNDEFINED    415056500                       # Cumulative time (in ticks) in various power states (Tick)
board.processor.cores9.core.power_state.pwrStateResidencyTicks::ON    415056500                       # Cumulative time (in ticks) in various power states (Tick)
board.processor.cores9.core.rename.squashCycles         2186                       # Number of cycles rename is squashing (Cycle)
board.processor.cores9.core.rename.idleCycles        23914                       # Number of cycles rename is idle (Cycle)
board.processor.cores9.core.rename.blockCycles        68374                       # Number of cycles rename is blocking (Cycle)
board.processor.cores9.core.rename.serializeStallCycles            0                       # count of cycles rename stalled for serializing inst (Cycle)
board.processor.cores9.core.rename.runCycles        42228                       # Number of cycles rename is running (Cycle)
board.processor.cores9.core.rename.unblockCycles        23500                       # Number of cycles rename is unblocking (Cycle)
board.processor.cores9.core.rename.renamedInsts       327840                       # Number of instructions processed by rename (Count)
board.processor.cores9.core.rename.IQFullEvents        23075                       # Number of times rename has blocked due to IQ full (Count)
board.processor.cores9.core.rename.LQFullEvents           63                       # Number of times rename has blocked due to LQ full (Count)
board.processor.cores9.core.rename.SQFullEvents          353                       # Number of times rename has blocked due to SQ full (Count)
board.processor.cores9.core.rename.renamedOperands       517451                       # Number of destination operands rename has renamed (Count)
board.processor.cores9.core.rename.lookups      1023896                       # Number of register rename lookups that rename has made (Count)
board.processor.cores9.core.rename.intLookups       450521                       # Number of integer rename lookups (Count)
board.processor.cores9.core.rename.fpLookups           21                       # Number of floating rename lookups (Count)
board.processor.cores9.core.rename.committedMaps       208650                       # Number of HB maps that are committed (Count)
board.processor.cores9.core.rename.undoneMaps       308801                       # Number of HB maps that are undone due to squashing (Count)
board.processor.cores9.core.rename.serializing            0                       # count of serializing insts renamed (Count)
board.processor.cores9.core.rename.tempSerializing            0                       # count of temporary serializing insts renamed (Count)
board.processor.cores9.core.rename.skidInsts        43864                       # count of insts added to the skid buffer (Count)
board.processor.cores9.core.rob.reads          439782                       # The number of ROB reads (Count)
board.processor.cores9.core.rob.writes         644568                       # The number of ROB writes (Count)
board.processor.cores9.core.thread_0.numInsts        79780                       # Number of Instructions committed (Count)
board.processor.cores9.core.thread_0.numOps       135227                       # Number of Ops committed (Count)
board.processor.cores9.core.thread_0.numMemRefs            0                       # Number of Memory References (Count)
board.workload.inst.arm                             0                       # number of arm instructions executed (Count)
board.workload.inst.quiesce                         0                       # number of quiesce instructions executed (Count)

---------- End Simulation Statistics   ----------
