
---------- Begin Simulation Statistics ----------
simSeconds                                   0.000162                       # Number of seconds simulated (Second)
simTicks                                    161830500                       # Number of ticks simulated (Tick)
finalTick                                   433871500                       # Number of ticks from beginning of simulation (restored from checkpoints and never reset) (Tick)
simFreq                                  1000000000000                       # The number of ticks per simulated second ((Tick/Second))
hostSeconds                                     28.61                       # Real time elapsed on the host (Second)
hostTickRate                                  5656584                       # The number of ticks simulated per host second (ticks/s) ((Tick/Second))
hostMemory                                    1754472                       # Number of bytes of host memory used (Byte)
simInsts                                      1697642                       # Number of instructions simulated (Count)
simOps                                        2627502                       # Number of ops (including micro ops) simulated (Count)
hostInstRate                                    59339                       # Simulator instruction rate (inst/s) ((Count/Second))
hostOpRate                                      91840                       # Simulator op (including micro ops) rate (op/s) ((Count/Second))
board.cache_hierarchy.ruby_system.delayHistogram::bucket_size            8                       # delay histogram for all message (Unspecified)
board.cache_hierarchy.ruby_system.delayHistogram::max_bucket           79                       # delay histogram for all message (Unspecified)
board.cache_hierarchy.ruby_system.delayHistogram::samples        89707                       # delay histogram for all message (Unspecified)
board.cache_hierarchy.ruby_system.delayHistogram::mean     0.714058                       # delay histogram for all message (Unspecified)
board.cache_hierarchy.ruby_system.delayHistogram::stdev     2.575298                       # delay histogram for all message (Unspecified)
board.cache_hierarchy.ruby_system.delayHistogram |       84284     93.95%     93.95% |        5020      5.60%     99.55% |         359      0.40%     99.95% |          36      0.04%     99.99% |           4      0.00%    100.00% |           2      0.00%    100.00% |           0      0.00%    100.00% |           2      0.00%    100.00% |           0      0.00%    100.00% |           0      0.00%    100.00% # delay histogram for all message (Unspecified)
board.cache_hierarchy.ruby_system.delayHistogram::total        89707                       # delay histogram for all message (Unspecified)
board.cache_hierarchy.ruby_system.m_outstandReqHistSeqr::bucket_size            2                       (Unspecified)
board.cache_hierarchy.ruby_system.m_outstandReqHistSeqr::max_bucket           19                       (Unspecified)
board.cache_hierarchy.ruby_system.m_outstandReqHistSeqr::samples      1136215                       (Unspecified)
board.cache_hierarchy.ruby_system.m_outstandReqHistSeqr::mean     1.325523                       (Unspecified)
board.cache_hierarchy.ruby_system.m_outstandReqHistSeqr::gmean     1.247268                       (Unspecified)
board.cache_hierarchy.ruby_system.m_outstandReqHistSeqr::stdev     0.519826                       (Unspecified)
board.cache_hierarchy.ruby_system.m_outstandReqHistSeqr |      781531     68.78%     68.78% |      351923     30.97%     99.76% |        2306      0.20%     99.96% |         204      0.02%     99.98% |         123      0.01%     99.99% |          59      0.01%     99.99% |          21      0.00%    100.00% |          33      0.00%    100.00% |          15      0.00%    100.00% |           0      0.00%    100.00% (Unspecified)
board.cache_hierarchy.ruby_system.m_outstandReqHistSeqr::total      1136215                       (Unspecified)
board.cache_hierarchy.ruby_system.m_latencyHistSeqr::bucket_size          128                       (Unspecified)
board.cache_hierarchy.ruby_system.m_latencyHistSeqr::max_bucket         1279                       (Unspecified)
board.cache_hierarchy.ruby_system.m_latencyHistSeqr::samples      1136458                       (Unspecified)
board.cache_hierarchy.ruby_system.m_latencyHistSeqr::mean     1.797500                       (Unspecified)
board.cache_hierarchy.ruby_system.m_latencyHistSeqr::gmean     1.110398                       (Unspecified)
board.cache_hierarchy.ruby_system.m_latencyHistSeqr::stdev     5.614462                       (Unspecified)
board.cache_hierarchy.ruby_system.m_latencyHistSeqr |     1136260     99.98%     99.98% |         188      0.02%    100.00% |           0      0.00%    100.00% |           2      0.00%    100.00% |           0      0.00%    100.00% |           1      0.00%    100.00% |           7      0.00%    100.00% |           0      0.00%    100.00% |           0      0.00%    100.00% |           0      0.00%    100.00% (Unspecified)
board.cache_hierarchy.ruby_system.m_latencyHistSeqr::total      1136458                       (Unspecified)
board.cache_hierarchy.ruby_system.m_hitLatencyHistSeqr::bucket_size           16                       (Unspecified)
board.cache_hierarchy.ruby_system.m_hitLatencyHistSeqr::max_bucket          159                       (Unspecified)
board.cache_hierarchy.ruby_system.m_hitLatencyHistSeqr::samples      1098398                       (Unspecified)
board.cache_hierarchy.ruby_system.m_hitLatencyHistSeqr::mean     1.000507                       (Unspecified)
board.cache_hierarchy.ruby_system.m_hitLatencyHistSeqr::gmean     1.000177                       (Unspecified)
board.cache_hierarchy.ruby_system.m_hitLatencyHistSeqr::stdev     0.167255                       (Unspecified)
board.cache_hierarchy.ruby_system.m_hitLatencyHistSeqr |     1098395    100.00%    100.00% |           0      0.00%    100.00% |           0      0.00%    100.00% |           0      0.00%    100.00% |           1      0.00%    100.00% |           0      0.00%    100.00% |           1      0.00%    100.00% |           1      0.00%    100.00% |           0      0.00%    100.00% |           0      0.00%    100.00% (Unspecified)
board.cache_hierarchy.ruby_system.m_hitLatencyHistSeqr::total      1098398                       (Unspecified)
board.cache_hierarchy.ruby_system.m_missLatencyHistSeqr::bucket_size          128                       (Unspecified)
board.cache_hierarchy.ruby_system.m_missLatencyHistSeqr::max_bucket         1279                       (Unspecified)
board.cache_hierarchy.ruby_system.m_missLatencyHistSeqr::samples        38060                       (Unspecified)
board.cache_hierarchy.ruby_system.m_missLatencyHistSeqr::mean    24.798424                       (Unspecified)
board.cache_hierarchy.ruby_system.m_missLatencyHistSeqr::gmean    22.686030                       (Unspecified)
board.cache_hierarchy.ruby_system.m_missLatencyHistSeqr::stdev    19.825975                       (Unspecified)
board.cache_hierarchy.ruby_system.m_missLatencyHistSeqr |       37862     99.48%     99.48% |         188      0.49%     99.97% |           0      0.00%     99.97% |           2      0.01%     99.98% |           0      0.00%     99.98% |           1      0.00%     99.98% |           7      0.02%    100.00% |           0      0.00%    100.00% |           0      0.00%    100.00% |           0      0.00%    100.00% (Unspecified)
board.cache_hierarchy.ruby_system.m_missLatencyHistSeqr::total        38060                       (Unspecified)
board.cache_hierarchy.ruby_system.delayVCHist.vnet_0::bucket_size            8                       # delay histogram for vnet_0 (Unspecified)
board.cache_hierarchy.ruby_system.delayVCHist.vnet_0::max_bucket           79                       # delay histogram for vnet_0 (Unspecified)
board.cache_hierarchy.ruby_system.delayVCHist.vnet_0::samples        44363                       # delay histogram for vnet_0 (Unspecified)
board.cache_hierarchy.ruby_system.delayVCHist.vnet_0::mean     0.785519                       # delay histogram for vnet_0 (Unspecified)
board.cache_hierarchy.ruby_system.delayVCHist.vnet_0::stdev     2.818392                       # delay histogram for vnet_0 (Unspecified)
board.cache_hierarchy.ruby_system.delayVCHist.vnet_0 |       41750     94.11%     94.11% |        2358      5.32%     99.43% |         229      0.52%     99.94% |          19      0.04%     99.98% |           3      0.01%     99.99% |           2      0.00%    100.00% |           0      0.00%    100.00% |           2      0.00%    100.00% |           0      0.00%    100.00% |           0      0.00%    100.00% # delay histogram for vnet_0 (Unspecified)
board.cache_hierarchy.ruby_system.delayVCHist.vnet_0::total        44363                       # delay histogram for vnet_0 (Unspecified)
board.cache_hierarchy.ruby_system.delayVCHist.vnet_1::bucket_size            4                       # delay histogram for vnet_1 (Unspecified)
board.cache_hierarchy.ruby_system.delayVCHist.vnet_1::max_bucket           39                       # delay histogram for vnet_1 (Unspecified)
board.cache_hierarchy.ruby_system.delayVCHist.vnet_1::samples        42455                       # delay histogram for vnet_1 (Unspecified)
board.cache_hierarchy.ruby_system.delayVCHist.vnet_1::mean     0.687928                       # delay histogram for vnet_1 (Unspecified)
board.cache_hierarchy.ruby_system.delayVCHist.vnet_1::stdev     2.381761                       # delay histogram for vnet_1 (Unspecified)
board.cache_hierarchy.ruby_system.delayVCHist.vnet_1 |       38943     91.73%     91.73% |         702      1.65%     93.38% |        2512      5.92%     99.30% |         150      0.35%     99.65% |         124      0.29%     99.94% |           6      0.01%     99.96% |          17      0.04%    100.00% |           0      0.00%    100.00% |           1      0.00%    100.00% |           0      0.00%    100.00% # delay histogram for vnet_1 (Unspecified)
board.cache_hierarchy.ruby_system.delayVCHist.vnet_1::total        42455                       # delay histogram for vnet_1 (Unspecified)
board.cache_hierarchy.ruby_system.delayVCHist.vnet_2::bucket_size            1                       # delay histogram for vnet_2 (Unspecified)
board.cache_hierarchy.ruby_system.delayVCHist.vnet_2::max_bucket            9                       # delay histogram for vnet_2 (Unspecified)
board.cache_hierarchy.ruby_system.delayVCHist.vnet_2::samples         2889                       # delay histogram for vnet_2 (Unspecified)
board.cache_hierarchy.ruby_system.delayVCHist.vnet_2::mean     0.000692                       # delay histogram for vnet_2 (Unspecified)
board.cache_hierarchy.ruby_system.delayVCHist.vnet_2::stdev     0.037210                       # delay histogram for vnet_2 (Unspecified)
board.cache_hierarchy.ruby_system.delayVCHist.vnet_2 |        2888     99.97%     99.97% |           0      0.00%     99.97% |           1      0.03%    100.00% |           0      0.00%    100.00% |           0      0.00%    100.00% |           0      0.00%    100.00% |           0      0.00%    100.00% |           0      0.00%    100.00% |           0      0.00%    100.00% |           0      0.00%    100.00% # delay histogram for vnet_2 (Unspecified)
board.cache_hierarchy.ruby_system.delayVCHist.vnet_2::total         2889                       # delay histogram for vnet_2 (Unspecified)
board.cache_hierarchy.ruby_system.Directory_Controller.Fetch         1148      0.00%      0.00% (Unspecified)
board.cache_hierarchy.ruby_system.Directory_Controller.Memory_Data         1148      0.00%      0.00% (Unspecified)
board.cache_hierarchy.ruby_system.Directory_Controller.I.Fetch         1148      0.00%      0.00% (Unspecified)
board.cache_hierarchy.ruby_system.Directory_Controller.IM.Memory_Data         1148      0.00%      0.00% (Unspecified)
board.cache_hierarchy.ruby_system.L1Cache_Controller.Load |       13344      4.70%      4.70% |       16959      5.97%     10.67% |       16926      5.96%     16.63% |       16942      5.97%     22.60% |       16902      5.95%     28.55% |       16938      5.96%     34.52% |       16920      5.96%     40.47% |       16914      5.96%     46.43% |       16901      5.95%     52.38% |       16900      5.95%     58.33% |       16905      5.95%     64.29% |       16900      5.95%     70.24% |       16901      5.95%     76.19% |       16904      5.95%     82.14% |       16904      5.95%     88.10% |       16903      5.95%     94.05% |       16901      5.95%    100.00% (Unspecified)
board.cache_hierarchy.ruby_system.L1Cache_Controller.Load::total       283964                       (Unspecified)
board.cache_hierarchy.ruby_system.L1Cache_Controller.Ifetch |       21471      3.63%      3.63% |       35612      6.01%      9.64% |       35807      6.05%     15.68% |       35870      6.06%     21.74% |       35642      6.02%     27.76% |       35775      6.04%     33.80% |       35712      6.03%     39.83% |       35664      6.02%     45.85% |       35635      6.02%     51.86% |       35630      6.02%     57.88% |       35640      6.02%     63.90% |       35644      6.02%     69.92% |       35638      6.02%     75.93% |       35639      6.02%     81.95% |       35637      6.02%     87.97% |       35637      6.02%     93.98% |       35635      6.02%    100.00% (Unspecified)
board.cache_hierarchy.ruby_system.L1Cache_Controller.Ifetch::total       592288                       (Unspecified)
board.cache_hierarchy.ruby_system.L1Cache_Controller.Store |       22321      8.58%      8.58% |       15086      5.80%     14.38% |       15095      5.80%     20.18% |       15104      5.80%     25.98% |       14792      5.68%     31.67% |       15092      5.80%     37.47% |       14796      5.69%     43.15% |       14792      5.68%     48.84% |       14792      5.68%     54.52% |       14792      5.68%     60.21% |       14792      5.68%     65.89% |       14792      5.68%     71.58% |       14792      5.68%     77.26% |       14792      5.68%     82.95% |       14792      5.68%     88.63% |       14792      5.68%     94.32% |       14792      5.68%    100.00% (Unspecified)
board.cache_hierarchy.ruby_system.L1Cache_Controller.Store::total       260206                       (Unspecified)
board.cache_hierarchy.ruby_system.L1Cache_Controller.Inv |          91     34.87%     34.87% |          12      4.60%     39.46% |          17      6.51%     45.98% |          23      8.81%     54.79% |          13      4.98%     59.77% |          11      4.21%     63.98% |           8      3.07%     67.05% |           9      3.45%     70.50% |          10      3.83%     74.33% |           9      3.45%     77.78% |          10      3.83%     81.61% |          11      4.21%     85.82% |          10      3.83%     89.66% |          10      3.83%     93.49% |           9      3.45%     96.93% |           7      2.68%     99.62% |           1      0.38%    100.00% (Unspecified)
board.cache_hierarchy.ruby_system.L1Cache_Controller.Inv::total          261                       (Unspecified)
board.cache_hierarchy.ruby_system.L1Cache_Controller.L1_Replacement |         855      3.20%      3.20% |        1639      6.13%      9.32% |        1640      6.13%     15.45% |        1641      6.13%     21.59% |        1610      6.02%     27.61% |        1641      6.13%     33.74% |        1613      6.03%     39.77% |        1612      6.03%     45.80% |        1612      6.03%     51.82% |        1610      6.02%     57.84% |        1611      6.02%     63.87% |        1608      6.01%     69.88% |        1612      6.03%     75.90% |        1611      6.02%     81.93% |        1612      6.03%     87.95% |        1611      6.02%     93.97% |        1612      6.03%    100.00% (Unspecified)
board.cache_hierarchy.ruby_system.L1Cache_Controller.L1_Replacement::total        26750                       (Unspecified)
board.cache_hierarchy.ruby_system.L1Cache_Controller.Fwd_GETX |          39     17.26%     17.26% |          13      5.75%     23.01% |           6      2.65%     25.66% |          16      7.08%     32.74% |          16      7.08%     39.82% |           7      3.10%     42.92% |           6      2.65%     45.58% |          13      5.75%     51.33% |          13      5.75%     57.08% |          13      5.75%     62.83% |          13      5.75%     68.58% |          13      5.75%     74.34% |          14      6.19%     80.53% |          14      6.19%     86.73% |          14      6.19%     92.92% |          14      6.19%     99.12% |           2      0.88%    100.00% (Unspecified)
board.cache_hierarchy.ruby_system.L1Cache_Controller.Fwd_GETX::total          226                       (Unspecified)
board.cache_hierarchy.ruby_system.L1Cache_Controller.Fwd_GETS |         420     17.49%     17.49% |        1807     75.23%     92.71% |          12      0.50%     93.21% |          19      0.79%     94.00% |          13      0.54%     94.55% |           9      0.37%     94.92% |           7      0.29%     95.21% |          14      0.58%     95.80% |          13      0.54%     96.34% |          12      0.50%     96.84% |          12      0.50%     97.34% |          12      0.50%     97.84% |          11      0.46%     98.29% |          13      0.54%     98.83% |          12      0.50%     99.33% |          11      0.46%     99.79% |           5      0.21%    100.00% (Unspecified)
board.cache_hierarchy.ruby_system.L1Cache_Controller.Fwd_GETS::total         2402                       (Unspecified)
board.cache_hierarchy.ruby_system.L1Cache_Controller.Data |           0      0.00%      0.00% |           0      0.00%      0.00% |           0      0.00%      0.00% |           4    100.00%    100.00% |           0      0.00%    100.00% |           0      0.00%    100.00% |           0      0.00%    100.00% |           0      0.00%    100.00% |           0      0.00%    100.00% |           0      0.00%    100.00% |           0      0.00%    100.00% |           0      0.00%    100.00% |           0      0.00%    100.00% |           0      0.00%    100.00% |           0      0.00%    100.00% |           0      0.00%    100.00% |           0      0.00%    100.00% (Unspecified)
board.cache_hierarchy.ruby_system.L1Cache_Controller.Data::total            4                       (Unspecified)
board.cache_hierarchy.ruby_system.L1Cache_Controller.Data_Exclusive |          66      3.16%      3.16% |        1807     86.58%     89.75% |          14      0.67%     90.42% |          14      0.67%     91.09% |          15      0.72%     91.81% |          15      0.72%     92.53% |          14      0.67%     93.20% |          15      0.72%     93.91% |          15      0.72%     94.63% |          13      0.62%     95.26% |          13      0.62%     95.88% |          13      0.62%     96.50% |          14      0.67%     97.17% |          16      0.77%     97.94% |          15      0.72%     98.66% |          14      0.67%     99.33% |          14      0.67%    100.00% (Unspecified)
board.cache_hierarchy.ruby_system.L1Cache_Controller.Data_Exclusive::total         2087                       (Unspecified)
board.cache_hierarchy.ruby_system.L1Cache_Controller.DataS_fromL1 |          68      2.83%      2.83% |         281     11.70%     14.53% |        1809     75.31%     89.84% |          15      0.62%     90.47% |          23      0.96%     91.42% |          17      0.71%     92.13% |          20      0.83%     92.96% |          18      0.75%     93.71% |          16      0.67%     94.38% |          17      0.71%     95.09% |          17      0.71%     95.80% |          17      0.71%     96.50% |          17      0.71%     97.21% |          16      0.67%     97.88% |          17      0.71%     98.58% |          17      0.71%     99.29% |          17      0.71%    100.00% (Unspecified)
board.cache_hierarchy.ruby_system.L1Cache_Controller.DataS_fromL1::total         2402                       (Unspecified)
board.cache_hierarchy.ruby_system.L1Cache_Controller.Data_all_Acks |         760      2.28%      2.28% |         251      0.75%      3.03% |         540      1.62%      4.65% |        2333      7.00%     11.65% |        2255      6.76%     18.41% |        2326      6.98%     25.39% |        2272      6.81%     32.20% |        2264      6.79%     38.99% |        2262      6.78%     45.77% |        2260      6.78%     52.55% |        2261      6.78%     59.33% |        2258      6.77%     66.10% |        2261      6.78%     72.88% |        2260      6.78%     79.66% |        2261      6.78%     86.44% |        2260      6.78%     93.22% |        2262      6.78%    100.00% (Unspecified)
board.cache_hierarchy.ruby_system.L1Cache_Controller.Data_all_Acks::total        33346                       (Unspecified)
board.cache_hierarchy.ruby_system.L1Cache_Controller.Ack |          33     12.84%     12.84% |          10      3.89%     16.73% |          13      5.06%     21.79% |          14      5.45%     27.24% |          20      7.78%     35.02% |          13      5.06%     40.08% |          19      7.39%     47.47% |          13      5.06%     52.53% |          13      5.06%     57.59% |          14      5.45%     63.04% |          14      5.45%     68.48% |          14      5.45%     73.93% |          14      5.45%     79.38% |          13      5.06%     84.44% |          13      5.06%     89.49% |          14      5.45%     94.94% |          13      5.06%    100.00% (Unspecified)
board.cache_hierarchy.ruby_system.L1Cache_Controller.Ack::total          257                       (Unspecified)
board.cache_hierarchy.ruby_system.L1Cache_Controller.Ack_all |          29     12.89%     12.89% |          10      4.44%     17.33% |          11      4.89%     22.22% |          12      5.33%     27.56% |          14      6.22%     33.78% |          10      4.44%     38.22% |          13      5.78%     44.00% |          13      5.78%     49.78% |          12      5.33%     55.11% |          13      5.78%     60.89% |          13      5.78%     66.67% |          13      5.78%     72.44% |          13      5.78%     78.22% |          12      5.33%     83.56% |          12      5.33%     88.89% |          13      5.78%     94.67% |          12      5.33%    100.00% (Unspecified)
board.cache_hierarchy.ruby_system.L1Cache_Controller.Ack_all::total          225                       (Unspecified)
board.cache_hierarchy.ruby_system.L1Cache_Controller.WB_Ack |         361     61.82%     61.82% |          14      2.40%     64.21% |          14      2.40%     66.61% |          14      2.40%     69.01% |          14      2.40%     71.40% |          15      2.57%     73.97% |          14      2.40%     76.37% |          14      2.40%     78.77% |          14      2.40%     81.16% |          13      2.23%     83.39% |          13      2.23%     85.62% |          14      2.40%     88.01% |          14      2.40%     90.41% |          14      2.40%     92.81% |          14      2.40%     95.21% |          14      2.40%     97.60% |          14      2.40%    100.00% (Unspecified)
board.cache_hierarchy.ruby_system.L1Cache_Controller.WB_Ack::total          584                       (Unspecified)
board.cache_hierarchy.ruby_system.L1Cache_Controller.NP.Load |         132      0.39%      0.39% |        2090      6.21%      6.61% |        2092      6.22%     12.83% |        2091      6.22%     19.04% |        2094      6.23%     25.27% |        2092      6.22%     31.49% |        2096      6.23%     37.72% |        2094      6.23%     43.94% |        2096      6.23%     50.17% |        2094      6.23%     56.40% |        2095      6.23%     62.63% |        2092      6.22%     68.85% |        2096      6.23%     75.08% |        2095      6.23%     81.31% |        2097      6.23%     87.54% |        2095      6.23%     93.77% |        2096      6.23%    100.00% (Unspecified)
board.cache_hierarchy.ruby_system.L1Cache_Controller.NP.Load::total        33637                       (Unspecified)
board.cache_hierarchy.ruby_system.L1Cache_Controller.NP.Ifetch |         329     10.51%     10.51% |         188      6.01%     16.52% |         195      6.23%     22.75% |         198      6.33%     29.08% |         166      5.31%     34.39% |         193      6.17%     40.56% |         175      5.59%     46.15% |         173      5.53%     51.68% |         168      5.37%     57.05% |         168      5.37%     62.42% |         168      5.37%     67.79% |         168      5.37%     73.15% |         168      5.37%     78.52% |         168      5.37%     83.89% |         168      5.37%     89.26% |         168      5.37%     94.63% |         168      5.37%    100.00% (Unspecified)
board.cache_hierarchy.ruby_system.L1Cache_Controller.NP.Ifetch::total         3129                       (Unspecified)
board.cache_hierarchy.ruby_system.L1Cache_Controller.NP.Store |         394     40.49%     40.49% |          61      6.27%     46.76% |          60      6.17%     52.93% |          61      6.27%     59.20% |          28      2.88%     62.08% |          61      6.27%     68.35% |          28      2.88%     71.22% |          29      2.98%     74.20% |          28      2.88%     77.08% |          28      2.88%     79.96% |          28      2.88%     82.84% |          28      2.88%     85.71% |          28      2.88%     88.59% |          28      2.88%     91.47% |          27      2.77%     94.24% |          28      2.88%     97.12% |          28      2.88%    100.00% (Unspecified)
board.cache_hierarchy.ruby_system.L1Cache_Controller.NP.Store::total          973                       (Unspecified)
board.cache_hierarchy.ruby_system.L1Cache_Controller.NP.Inv |          12    100.00%    100.00% |           0      0.00%    100.00% |           0      0.00%    100.00% |           0      0.00%    100.00% |           0      0.00%    100.00% |           0      0.00%    100.00% |           0      0.00%    100.00% |           0      0.00%    100.00% |           0      0.00%    100.00% |           0      0.00%    100.00% |           0      0.00%    100.00% |           0      0.00%    100.00% |           0      0.00%    100.00% |           0      0.00%    100.00% |           0      0.00%    100.00% |           0      0.00%    100.00% |           0      0.00%    100.00% (Unspecified)
board.cache_hierarchy.ruby_system.L1Cache_Controller.NP.Inv::total           12                       (Unspecified)
board.cache_hierarchy.ruby_system.L1Cache_Controller.I.Load |          33     51.56%     51.56% |           0      0.00%     51.56% |           9     14.06%     65.62% |           6      9.38%     75.00% |           4      6.25%     81.25% |           7     10.94%     92.19% |           4      6.25%     98.44% |           1      1.56%    100.00% |           0      0.00%    100.00% |           0      0.00%    100.00% |           0      0.00%    100.00% |           0      0.00%    100.00% |           0      0.00%    100.00% |           0      0.00%    100.00% |           0      0.00%    100.00% |           0      0.00%    100.00% |           0      0.00%    100.00% (Unspecified)
board.cache_hierarchy.ruby_system.L1Cache_Controller.I.Load::total           64                       (Unspecified)
board.cache_hierarchy.ruby_system.L1Cache_Controller.I.Store |           6     18.18%     18.18% |           0      0.00%     18.18% |           5     15.15%     33.33% |           9     27.27%     60.61% |           1      3.03%     63.64% |           5     15.15%     78.79% |           3      9.09%     87.88% |           0      0.00%     87.88% |           1      3.03%     90.91% |           0      0.00%     90.91% |           0      0.00%     90.91% |           0      0.00%     90.91% |           0      0.00%     90.91% |           1      3.03%     93.94% |           1      3.03%     96.97% |           0      0.00%     96.97% |           1      3.03%    100.00% (Unspecified)
board.cache_hierarchy.ruby_system.L1Cache_Controller.I.Store::total           33                       (Unspecified)
board.cache_hierarchy.ruby_system.L1Cache_Controller.I.L1_Replacement |          58     95.08%     95.08% |           1      1.64%     96.72% |           1      1.64%     98.36% |           1      1.64%    100.00% |           0      0.00%    100.00% |           0      0.00%    100.00% |           0      0.00%    100.00% |           0      0.00%    100.00% |           0      0.00%    100.00% |           0      0.00%    100.00% |           0      0.00%    100.00% |           0      0.00%    100.00% |           0      0.00%    100.00% |           0      0.00%    100.00% |           0      0.00%    100.00% |           0      0.00%    100.00% |           0      0.00%    100.00% (Unspecified)
board.cache_hierarchy.ruby_system.L1Cache_Controller.I.L1_Replacement::total           61                       (Unspecified)
board.cache_hierarchy.ruby_system.L1Cache_Controller.S.Load |         537     30.97%     30.97% |          49      2.83%     33.79% |          83      4.79%     38.58% |          94      5.42%     44.00% |          87      5.02%     49.02% |          94      5.42%     54.44% |          94      5.42%     59.86% |          95      5.48%     65.34% |          67      3.86%     69.20% |          67      3.86%     73.07% |          64      3.69%     76.76% |          68      3.92%     80.68% |          67      3.86%     84.54% |          67      3.86%     88.41% |          67      3.86%     92.27% |          67      3.86%     96.14% |          67      3.86%    100.00% (Unspecified)
board.cache_hierarchy.ruby_system.L1Cache_Controller.S.Load::total         1734                       (Unspecified)
board.cache_hierarchy.ruby_system.L1Cache_Controller.S.Ifetch |       21142      3.59%      3.59% |       35424      6.01%      9.60% |       35612      6.04%     15.65% |       35672      6.05%     21.70% |       35476      6.02%     27.72% |       35582      6.04%     33.76% |       35537      6.03%     39.79% |       35491      6.02%     45.82% |       35467      6.02%     51.84% |       35462      6.02%     57.86% |       35472      6.02%     63.88% |       35476      6.02%     69.90% |       35470      6.02%     75.92% |       35471      6.02%     81.94% |       35469      6.02%     87.96% |       35469      6.02%     93.98% |       35467      6.02%    100.00% (Unspecified)
board.cache_hierarchy.ruby_system.L1Cache_Controller.S.Ifetch::total       589159                       (Unspecified)
board.cache_hierarchy.ruby_system.L1Cache_Controller.S.Store |          29     12.95%     12.95% |          10      4.46%     17.41% |          13      5.80%     23.21% |           9      4.02%     27.23% |          14      6.25%     33.48% |          10      4.46%     37.95% |          13      5.80%     43.75% |          13      5.80%     49.55% |          12      5.36%     54.91% |          13      5.80%     60.71% |          13      5.80%     66.52% |          13      5.80%     72.32% |          13      5.80%     78.13% |          12      5.36%     83.48% |          12      5.36%     88.84% |          13      5.80%     94.64% |          12      5.36%    100.00% (Unspecified)
board.cache_hierarchy.ruby_system.L1Cache_Controller.S.Store::total          224                       (Unspecified)
board.cache_hierarchy.ruby_system.L1Cache_Controller.S.Inv |          79     32.24%     32.24% |          12      4.90%     37.14% |          15      6.12%     43.27% |          22      8.98%     52.24% |          13      5.31%     57.55% |          11      4.49%     62.04% |           7      2.86%     64.90% |           9      3.67%     68.57% |          10      4.08%     72.65% |           9      3.67%     76.33% |          10      4.08%     80.41% |          11      4.49%     84.90% |          10      4.08%     88.98% |          10      4.08%     93.06% |           9      3.67%     96.73% |           7      2.86%     99.59% |           1      0.41%    100.00% (Unspecified)
board.cache_hierarchy.ruby_system.L1Cache_Controller.S.Inv::total          245                       (Unspecified)
board.cache_hierarchy.ruby_system.L1Cache_Controller.S.L1_Replacement |         436      1.67%      1.67% |        1624      6.22%      7.89% |        1625      6.22%     14.12% |        1626      6.23%     20.34% |        1596      6.11%     26.46% |        1626      6.23%     32.69% |        1599      6.13%     38.81% |        1598      6.12%     44.93% |        1598      6.12%     51.06% |        1597      6.12%     57.17% |        1598      6.12%     63.29% |        1594      6.11%     69.40% |        1598      6.12%     75.52% |        1597      6.12%     81.64% |        1598      6.12%     87.76% |        1597      6.12%     93.88% |        1598      6.12%    100.00% (Unspecified)
board.cache_hierarchy.ruby_system.L1Cache_Controller.S.L1_Replacement::total        26105                       (Unspecified)
board.cache_hierarchy.ruby_system.L1Cache_Controller.E.Load |        1488     90.73%     90.73% |          28      1.71%     92.44% |           9      0.55%     92.99% |           9      0.55%     93.54% |           9      0.55%     94.09% |          10      0.61%     94.70% |           8      0.49%     95.18% |           8      0.49%     95.67% |           8      0.49%     96.16% |           8      0.49%     96.65% |           5      0.30%     96.95% |           8      0.49%     97.44% |           8      0.49%     97.93% |           9      0.55%     98.48% |           8      0.49%     98.96% |           9      0.55%     99.51% |           8      0.49%    100.00% (Unspecified)
board.cache_hierarchy.ruby_system.L1Cache_Controller.E.Load::total         1640                       (Unspecified)
board.cache_hierarchy.ruby_system.L1Cache_Controller.E.Store |          27     16.98%     16.98% |           8      5.03%     22.01% |           9      5.66%     27.67% |           9      5.66%     33.33% |           9      5.66%     38.99% |           9      5.66%     44.65% |           9      5.66%     50.31% |           8      5.03%     55.35% |           8      5.03%     60.38% |           7      4.40%     64.78% |           7      4.40%     69.18% |           8      5.03%     74.21% |           8      5.03%     79.25% |           8      5.03%     84.28% |           9      5.66%     89.94% |           8      5.03%     94.97% |           8      5.03%    100.00% (Unspecified)
board.cache_hierarchy.ruby_system.L1Cache_Controller.E.Store::total          159                       (Unspecified)
board.cache_hierarchy.ruby_system.L1Cache_Controller.E.L1_Replacement |          13     43.33%     43.33% |           1      3.33%     46.67% |           1      3.33%     50.00% |           1      3.33%     53.33% |           1      3.33%     56.67% |           2      6.67%     63.33% |           1      3.33%     66.67% |           1      3.33%     70.00% |           1      3.33%     73.33% |           1      3.33%     76.67% |           1      3.33%     80.00% |           1      3.33%     83.33% |           1      3.33%     86.67% |           1      3.33%     90.00% |           1      3.33%     93.33% |           1      3.33%     96.67% |           1      3.33%    100.00% (Unspecified)
board.cache_hierarchy.ruby_system.L1Cache_Controller.E.L1_Replacement::total           30                       (Unspecified)
board.cache_hierarchy.ruby_system.L1Cache_Controller.E.Fwd_GETS |           7      0.38%      0.38% |        1795     98.41%     98.79% |           1      0.05%     98.85% |           1      0.05%     98.90% |           2      0.11%     99.01% |           1      0.05%     99.07% |           1      0.05%     99.12% |           2      0.11%     99.23% |           2      0.11%     99.34% |           1      0.05%     99.40% |           1      0.05%     99.45% |           1      0.05%     99.51% |           1      0.05%     99.56% |           3      0.16%     99.73% |           2      0.11%     99.84% |           1      0.05%     99.89% |           2      0.11%    100.00% (Unspecified)
board.cache_hierarchy.ruby_system.L1Cache_Controller.E.Fwd_GETS::total         1824                       (Unspecified)
board.cache_hierarchy.ruby_system.L1Cache_Controller.M.Load |       11154      4.52%      4.52% |       14792      5.99%     10.51% |       14733      5.97%     16.48% |       14742      5.97%     22.45% |       14708      5.96%     28.41% |       14735      5.97%     34.37% |       14718      5.96%     40.33% |       14716      5.96%     46.30% |       14730      5.97%     52.26% |       14731      5.97%     58.23% |       14741      5.97%     64.20% |       14732      5.97%     70.17% |       14730      5.97%     76.13% |       14733      5.97%     82.10% |       14732      5.97%     88.07% |       14732      5.97%     94.03% |       14730      5.97%    100.00% (Unspecified)
board.cache_hierarchy.ruby_system.L1Cache_Controller.M.Load::total       246889                       (Unspecified)
board.cache_hierarchy.ruby_system.L1Cache_Controller.M.Store |       21865      8.45%      8.45% |       15007      5.80%     14.25% |       15008      5.80%     20.05% |       15016      5.80%     25.85% |       14740      5.70%     31.54% |       15007      5.80%     37.34% |       14743      5.70%     43.04% |       14742      5.70%     48.73% |       14743      5.70%     54.43% |       14744      5.70%     60.13% |       14744      5.70%     65.82% |       14743      5.70%     71.52% |       14743      5.70%     77.21% |       14743      5.70%     82.91% |       14743      5.70%     88.61% |       14743      5.70%     94.30% |       14743      5.70%    100.00% (Unspecified)
board.cache_hierarchy.ruby_system.L1Cache_Controller.M.Store::total       258817                       (Unspecified)
board.cache_hierarchy.ruby_system.L1Cache_Controller.M.L1_Replacement |         348     62.82%     62.82% |          13      2.35%     65.16% |          13      2.35%     67.51% |          13      2.35%     69.86% |          13      2.35%     72.20% |          13      2.35%     74.55% |          13      2.35%     76.90% |          13      2.35%     79.24% |          13      2.35%     81.59% |          12      2.17%     83.75% |          12      2.17%     85.92% |          13      2.35%     88.27% |          13      2.35%     90.61% |          13      2.35%     92.96% |          13      2.35%     95.31% |          13      2.35%     97.65% |          13      2.35%    100.00% (Unspecified)
board.cache_hierarchy.ruby_system.L1Cache_Controller.M.L1_Replacement::total          554                       (Unspecified)
board.cache_hierarchy.ruby_system.L1Cache_Controller.M.Fwd_GETX |          39     17.26%     17.26% |          13      5.75%     23.01% |           6      2.65%     25.66% |          16      7.08%     32.74% |          16      7.08%     39.82% |           7      3.10%     42.92% |           6      2.65%     45.58% |          13      5.75%     51.33% |          13      5.75%     57.08% |          13      5.75%     62.83% |          13      5.75%     68.58% |          13      5.75%     74.34% |          14      6.19%     80.53% |          14      6.19%     86.73% |          14      6.19%     92.92% |          14      6.19%     99.12% |           2      0.88%    100.00% (Unspecified)
board.cache_hierarchy.ruby_system.L1Cache_Controller.M.Fwd_GETX::total          226                       (Unspecified)
board.cache_hierarchy.ruby_system.L1Cache_Controller.M.Fwd_GETS |         413     71.45%     71.45% |          12      2.08%     73.53% |          11      1.90%     75.43% |          18      3.11%     78.55% |          11      1.90%     80.45% |           8      1.38%     81.83% |           6      1.04%     82.87% |          12      2.08%     84.95% |          11      1.90%     86.85% |          11      1.90%     88.75% |          11      1.90%     90.66% |          11      1.90%     92.56% |          10      1.73%     94.29% |          10      1.73%     96.02% |          10      1.73%     97.75% |          10      1.73%     99.48% |           3      0.52%    100.00% (Unspecified)
board.cache_hierarchy.ruby_system.L1Cache_Controller.M.Fwd_GETS::total          578                       (Unspecified)
board.cache_hierarchy.ruby_system.L1Cache_Controller.IS.Inv |           0      0.00%      0.00% |           0      0.00%      0.00% |           0      0.00%      0.00% |           0      0.00%      0.00% |           0      0.00%      0.00% |           0      0.00%      0.00% |           1    100.00%    100.00% |           0      0.00%    100.00% |           0      0.00%    100.00% |           0      0.00%    100.00% |           0      0.00%    100.00% |           0      0.00%    100.00% |           0      0.00%    100.00% |           0      0.00%    100.00% |           0      0.00%    100.00% |           0      0.00%    100.00% |           0      0.00%    100.00% (Unspecified)
board.cache_hierarchy.ruby_system.L1Cache_Controller.IS.Inv::total            1                       (Unspecified)
board.cache_hierarchy.ruby_system.L1Cache_Controller.IS.Data_Exclusive |          66      3.16%      3.16% |        1807     86.58%     89.75% |          14      0.67%     90.42% |          14      0.67%     91.09% |          15      0.72%     91.81% |          15      0.72%     92.53% |          14      0.67%     93.20% |          15      0.72%     93.91% |          15      0.72%     94.63% |          13      0.62%     95.26% |          13      0.62%     95.88% |          13      0.62%     96.50% |          14      0.67%     97.17% |          16      0.77%     97.94% |          15      0.72%     98.66% |          14      0.67%     99.33% |          14      0.67%    100.00% (Unspecified)
board.cache_hierarchy.ruby_system.L1Cache_Controller.IS.Data_Exclusive::total         2087                       (Unspecified)
board.cache_hierarchy.ruby_system.L1Cache_Controller.IS.DataS_fromL1 |          68      2.83%      2.83% |         281     11.70%     14.53% |        1809     75.31%     89.84% |          15      0.62%     90.47% |          23      0.96%     91.42% |          17      0.71%     92.13% |          20      0.83%     92.96% |          18      0.75%     93.71% |          16      0.67%     94.38% |          17      0.71%     95.09% |          17      0.71%     95.80% |          17      0.71%     96.50% |          17      0.71%     97.21% |          16      0.67%     97.88% |          17      0.71%     98.58% |          17      0.71%     99.29% |          17      0.71%    100.00% (Unspecified)
board.cache_hierarchy.ruby_system.L1Cache_Controller.IS.DataS_fromL1::total         2402                       (Unspecified)
board.cache_hierarchy.ruby_system.L1Cache_Controller.IS.Data_all_Acks |         360      1.11%      1.11% |         190      0.59%      1.70% |         473      1.46%      3.16% |        2266      7.01%     10.17% |        2226      6.88%     17.05% |        2260      6.99%     24.04% |        2240      6.93%     30.97% |        2235      6.91%     37.88% |        2233      6.90%     44.78% |        2232      6.90%     51.69% |        2233      6.90%     58.59% |        2230      6.90%     65.49% |        2233      6.90%     72.39% |        2231      6.90%     79.29% |        2233      6.90%     86.19% |        2232      6.90%     93.10% |        2233      6.90%    100.00% (Unspecified)
board.cache_hierarchy.ruby_system.L1Cache_Controller.IS.Data_all_Acks::total        32340                       (Unspecified)
board.cache_hierarchy.ruby_system.L1Cache_Controller.IM.Data |           0      0.00%      0.00% |           0      0.00%      0.00% |           0      0.00%      0.00% |           4    100.00%    100.00% |           0      0.00%    100.00% |           0      0.00%    100.00% |           0      0.00%    100.00% |           0      0.00%    100.00% |           0      0.00%    100.00% |           0      0.00%    100.00% |           0      0.00%    100.00% |           0      0.00%    100.00% |           0      0.00%    100.00% |           0      0.00%    100.00% |           0      0.00%    100.00% |           0      0.00%    100.00% |           0      0.00%    100.00% (Unspecified)
board.cache_hierarchy.ruby_system.L1Cache_Controller.IM.Data::total            4                       (Unspecified)
board.cache_hierarchy.ruby_system.L1Cache_Controller.IM.Data_all_Acks |         400     39.80%     39.80% |          61      6.07%     45.87% |          67      6.67%     52.54% |          67      6.67%     59.20% |          29      2.89%     62.09% |          66      6.57%     68.66% |          31      3.08%     71.74% |          29      2.89%     74.63% |          29      2.89%     77.51% |          28      2.79%     80.30% |          28      2.79%     83.08% |          28      2.79%     85.87% |          28      2.79%     88.66% |          29      2.89%     91.54% |          28      2.79%     94.33% |          28      2.79%     97.11% |          29      2.89%    100.00% (Unspecified)
board.cache_hierarchy.ruby_system.L1Cache_Controller.IM.Data_all_Acks::total         1005                       (Unspecified)
board.cache_hierarchy.ruby_system.L1Cache_Controller.SM.Inv |           0      0.00%      0.00% |           0      0.00%      0.00% |           2     66.67%     66.67% |           1     33.33%    100.00% |           0      0.00%    100.00% |           0      0.00%    100.00% |           0      0.00%    100.00% |           0      0.00%    100.00% |           0      0.00%    100.00% |           0      0.00%    100.00% |           0      0.00%    100.00% |           0      0.00%    100.00% |           0      0.00%    100.00% |           0      0.00%    100.00% |           0      0.00%    100.00% |           0      0.00%    100.00% |           0      0.00%    100.00% (Unspecified)
board.cache_hierarchy.ruby_system.L1Cache_Controller.SM.Inv::total            3                       (Unspecified)
board.cache_hierarchy.ruby_system.L1Cache_Controller.SM.Ack |          33     12.84%     12.84% |          10      3.89%     16.73% |          13      5.06%     21.79% |          14      5.45%     27.24% |          20      7.78%     35.02% |          13      5.06%     40.08% |          19      7.39%     47.47% |          13      5.06%     52.53% |          13      5.06%     57.59% |          14      5.45%     63.04% |          14      5.45%     68.48% |          14      5.45%     73.93% |          14      5.45%     79.38% |          13      5.06%     84.44% |          13      5.06%     89.49% |          14      5.45%     94.94% |          13      5.06%    100.00% (Unspecified)
board.cache_hierarchy.ruby_system.L1Cache_Controller.SM.Ack::total          257                       (Unspecified)
board.cache_hierarchy.ruby_system.L1Cache_Controller.SM.Ack_all |          29     12.89%     12.89% |          10      4.44%     17.33% |          11      4.89%     22.22% |          12      5.33%     27.56% |          14      6.22%     33.78% |          10      4.44%     38.22% |          13      5.78%     44.00% |          13      5.78%     49.78% |          12      5.33%     55.11% |          13      5.78%     60.89% |          13      5.78%     66.67% |          13      5.78%     72.44% |          13      5.78%     78.22% |          12      5.33%     83.56% |          12      5.33%     88.89% |          13      5.78%     94.67% |          12      5.33%    100.00% (Unspecified)
board.cache_hierarchy.ruby_system.L1Cache_Controller.SM.Ack_all::total          225                       (Unspecified)
board.cache_hierarchy.ruby_system.L1Cache_Controller.IS_I.Data_all_Acks |           0      0.00%      0.00% |           0      0.00%      0.00% |           0      0.00%      0.00% |           0      0.00%      0.00% |           0      0.00%      0.00% |           0      0.00%      0.00% |           1    100.00%    100.00% |           0      0.00%    100.00% |           0      0.00%    100.00% |           0      0.00%    100.00% |           0      0.00%    100.00% |           0      0.00%    100.00% |           0      0.00%    100.00% |           0      0.00%    100.00% |           0      0.00%    100.00% |           0      0.00%    100.00% |           0      0.00%    100.00% (Unspecified)
board.cache_hierarchy.ruby_system.L1Cache_Controller.IS_I.Data_all_Acks::total            1                       (Unspecified)
board.cache_hierarchy.ruby_system.L1Cache_Controller.M_I.WB_Ack |         361     61.82%     61.82% |          14      2.40%     64.21% |          14      2.40%     66.61% |          14      2.40%     69.01% |          14      2.40%     71.40% |          15      2.57%     73.97% |          14      2.40%     76.37% |          14      2.40%     78.77% |          14      2.40%     81.16% |          13      2.23%     83.39% |          13      2.23%     85.62% |          14      2.40%     88.01% |          14      2.40%     90.41% |          14      2.40%     92.81% |          14      2.40%     95.21% |          14      2.40%     97.60% |          14      2.40%    100.00% (Unspecified)
board.cache_hierarchy.ruby_system.L1Cache_Controller.M_I.WB_Ack::total          584                       (Unspecified)
board.cache_hierarchy.ruby_system.L2Cache_Controller.L1_GET_INSTR |         213      6.81%      6.81% |         144      4.60%     11.41% |         136      4.35%     15.76% |         166      5.31%     21.06% |         190      6.07%     27.13% |         224      7.16%     34.29% |         228      7.29%     41.58% |         172      5.50%     47.08% |         181      5.78%     52.86% |         207      6.62%     59.48% |         188      6.01%     65.48% |         198      6.33%     71.81% |         207      6.62%     78.43% |         201      6.42%     84.85% |         229      7.32%     92.17% |         245      7.83%    100.00% (Unspecified)
board.cache_hierarchy.ruby_system.L2Cache_Controller.L1_GET_INSTR::total         3129                       (Unspecified)
board.cache_hierarchy.ruby_system.L2Cache_Controller.L1_GETS |        2147      6.12%      6.12% |        2168      6.18%     12.29% |        2229      6.35%     18.64% |        2232      6.36%     25.00% |        2214      6.31%     31.31% |        2227      6.34%     37.66% |        2208      6.29%     43.95% |        2169      6.18%     50.13% |        2176      6.20%     56.33% |        2211      6.30%     62.63% |        2225      6.34%     68.96% |        2136      6.09%     75.05% |        2189      6.24%     81.29% |        2180      6.21%     87.50% |        2200      6.27%     93.77% |        2188      6.23%    100.00% (Unspecified)
board.cache_hierarchy.ruby_system.L2Cache_Controller.L1_GETS::total        35099                       (Unspecified)
board.cache_hierarchy.ruby_system.L2Cache_Controller.L1_GETX |          48      4.70%      4.70% |          56      5.48%     10.18% |          52      5.09%     15.26% |          54      5.28%     20.55% |          92      9.00%     29.55% |         114     11.15%     40.70% |          77      7.53%     48.24% |          81      7.93%     56.16% |          81      7.93%     64.09% |          48      4.70%     68.79% |          81      7.93%     76.71% |          33      3.23%     79.94% |          64      6.26%     86.20% |          64      6.26%     92.47% |          46      4.50%     96.97% |          31      3.03%    100.00% (Unspecified)
board.cache_hierarchy.ruby_system.L2Cache_Controller.L1_GETX::total         1022                       (Unspecified)
board.cache_hierarchy.ruby_system.L2Cache_Controller.L1_UPGRADE |           2      0.88%      0.88% |          52     22.91%     23.79% |          28     12.33%     36.12% |          13      5.73%     41.85% |          14      6.17%     48.02% |          32     14.10%     62.11% |           9      3.96%     66.08% |           5      2.20%     68.28% |           0      0.00%     68.28% |           2      0.88%     69.16% |          30     13.22%     82.38% |           0      0.00%     82.38% |          19      8.37%     90.75% |           2      0.88%     91.63% |          17      7.49%     99.12% |           2      0.88%    100.00% (Unspecified)
board.cache_hierarchy.ruby_system.L2Cache_Controller.L1_UPGRADE::total          227                       (Unspecified)
board.cache_hierarchy.ruby_system.L2Cache_Controller.L1_PUTX |          23      3.94%      3.94% |          52      8.90%     12.84% |          31      5.31%     18.15% |          49      8.39%     26.54% |          62     10.62%     37.16% |          67     11.47%     48.63% |          45      7.71%     56.34% |          46      7.88%     64.21% |          50      8.56%     72.77% |          30      5.14%     77.91% |          28      4.79%     82.71% |          11      1.88%     84.59% |          29      4.97%     89.55% |          38      6.51%     96.06% |          13      2.23%     98.29% |          10      1.71%    100.00% (Unspecified)
board.cache_hierarchy.ruby_system.L2Cache_Controller.L1_PUTX::total          584                       (Unspecified)
board.cache_hierarchy.ruby_system.L2Cache_Controller.Mem_Data |          60      5.23%      5.23% |          72      6.27%     11.50% |          77      6.71%     18.21% |          79      6.88%     25.09% |          94      8.19%     33.28% |          95      8.28%     41.55% |          79      6.88%     48.43% |          73      6.36%     54.79% |          70      6.10%     60.89% |          73      6.36%     67.25% |          55      4.79%     72.04% |          42      3.66%     75.70% |          64      5.57%     81.27% |          74      6.45%     87.72% |          69      6.01%     93.73% |          72      6.27%    100.00% (Unspecified)
board.cache_hierarchy.ruby_system.L2Cache_Controller.Mem_Data::total         1148                       (Unspecified)
board.cache_hierarchy.ruby_system.L2Cache_Controller.WB_Data |          26      4.50%      4.50% |          81     14.01%     18.51% |          63     10.90%     29.41% |          30      5.19%     34.60% |          32      5.54%     40.14% |          58     10.03%     50.17% |          26      4.50%     54.67% |          22      3.81%     58.48% |          20      3.46%     61.94% |          39      6.75%     68.69% |          47      8.13%     76.82% |          20      3.46%     80.28% |          36      6.23%     86.51% |          22      3.81%     90.31% |          34      5.88%     96.19% |          22      3.81%    100.00% (Unspecified)
board.cache_hierarchy.ruby_system.L2Cache_Controller.WB_Data::total          578                       (Unspecified)
board.cache_hierarchy.ruby_system.L2Cache_Controller.WB_Data_clean |         107      5.87%      5.87% |         114      6.25%     12.12% |         113      6.20%     18.31% |         130      7.13%     25.44% |         113      6.20%     31.63% |         119      6.52%     38.16% |         115      6.30%     44.46% |         112      6.14%     50.60% |         113      6.20%     56.80% |         111      6.09%     62.88% |         113      6.20%     69.08% |         109      5.98%     75.05% |         114      6.25%     81.30% |         116      6.36%     87.66% |         115      6.30%     93.97% |         110      6.03%    100.00% (Unspecified)
board.cache_hierarchy.ruby_system.L2Cache_Controller.WB_Data_clean::total         1824                       (Unspecified)
board.cache_hierarchy.ruby_system.L2Cache_Controller.Unblock |         133      5.54%      5.54% |         195      8.12%     13.66% |         176      7.33%     20.98% |         160      6.66%     27.64% |         145      6.04%     33.68% |         177      7.37%     41.05% |         141      5.87%     46.92% |         134      5.58%     52.50% |         133      5.54%     58.03% |         150      6.24%     64.28% |         160      6.66%     70.94% |         129      5.37%     76.31% |         150      6.24%     82.56% |         138      5.75%     88.30% |         149      6.20%     94.50% |         132      5.50%    100.00% (Unspecified)
board.cache_hierarchy.ruby_system.L2Cache_Controller.Unblock::total         2402                       (Unspecified)
board.cache_hierarchy.ruby_system.L2Cache_Controller.Exclusive_Unblock |         173      5.22%      5.22% |         253      7.63%     12.84% |         211      6.36%     19.20% |         214      6.45%     25.66% |         256      7.72%     33.37% |         287      8.65%     42.03% |         222      6.69%     48.72% |         217      6.54%     55.26% |         217      6.54%     61.80% |         179      5.40%     67.20% |         209      6.30%     73.50% |         145      4.37%     77.87% |         202      6.09%     83.96% |         189      5.70%     89.66% |         181      5.46%     95.12% |         162      4.88%    100.00% (Unspecified)
board.cache_hierarchy.ruby_system.L2Cache_Controller.Exclusive_Unblock::total         3317                       (Unspecified)
board.cache_hierarchy.ruby_system.L2Cache_Controller.NP.L1_GET_INSTR |          26      6.74%      6.74% |          24      6.22%     12.95% |          27      6.99%     19.95% |          28      7.25%     27.20% |          27      6.99%     34.20% |          27      6.99%     41.19% |          26      6.74%     47.93% |          22      5.70%     53.63% |          18      4.66%     58.29% |          21      5.44%     63.73% |          20      5.18%     68.91% |          22      5.70%     74.61% |          27      6.99%     81.61% |          23      5.96%     87.56% |          23      5.96%     93.52% |          25      6.48%    100.00% (Unspecified)
board.cache_hierarchy.ruby_system.L2Cache_Controller.NP.L1_GET_INSTR::total          386                       (Unspecified)
board.cache_hierarchy.ruby_system.L2Cache_Controller.NP.L1_GETS |           0      0.00%      0.00% |           2      3.17%      3.17% |           0      0.00%      3.17% |           0      0.00%      3.17% |          16     25.40%     28.57% |           1      1.59%     30.16% |           2      3.17%     33.33% |           1      1.59%     34.92% |           1      1.59%     36.51% |          17     26.98%     63.49% |           1      1.59%     65.08% |           1      1.59%     66.67% |           2      3.17%     69.84% |           0      0.00%     69.84% |           2      3.17%     73.02% |          17     26.98%    100.00% (Unspecified)
board.cache_hierarchy.ruby_system.L2Cache_Controller.NP.L1_GETS::total           63                       (Unspecified)
board.cache_hierarchy.ruby_system.L2Cache_Controller.NP.L1_GETX |          34      4.86%      4.86% |          46      6.58%     11.44% |          50      7.15%     18.60% |          51      7.30%     25.89% |          51      7.30%     33.19% |          67      9.59%     42.78% |          51      7.30%     50.07% |          50      7.15%     57.22% |          51      7.30%     64.52% |          35      5.01%     69.53% |          34      4.86%     74.39% |          19      2.72%     77.11% |          35      5.01%     82.12% |          51      7.30%     89.41% |          44      6.29%     95.71% |          30      4.29%    100.00% (Unspecified)
board.cache_hierarchy.ruby_system.L2Cache_Controller.NP.L1_GETX::total          699                       (Unspecified)
board.cache_hierarchy.ruby_system.L2Cache_Controller.SS.L1_GET_INSTR |         187      6.83%      6.83% |         120      4.38%     11.21% |         109      3.98%     15.19% |         138      5.04%     20.23% |         163      5.95%     26.19% |         197      7.20%     33.38% |         201      7.34%     40.72% |         148      5.41%     46.13% |         163      5.95%     52.08% |         184      6.72%     58.80% |         168      6.14%     64.94% |         176      6.43%     71.37% |         180      6.57%     77.94% |         178      6.50%     84.44% |         206      7.52%     91.96% |         220      8.04%    100.00% (Unspecified)
board.cache_hierarchy.ruby_system.L2Cache_Controller.SS.L1_GET_INSTR::total         2738                       (Unspecified)
board.cache_hierarchy.ruby_system.L2Cache_Controller.SS.L1_GETS |        1812      6.20%      6.20% |        1818      6.22%     12.43% |        1826      6.25%     18.68% |        1832      6.27%     24.95% |        1826      6.25%     31.20% |        1802      6.17%     37.37% |        1836      6.29%     43.65% |        1813      6.21%     49.86% |        1818      6.22%     56.08% |        1843      6.31%     62.39% |        1847      6.32%     68.71% |        1811      6.20%     74.91% |        1824      6.24%     81.16% |        1822      6.24%     87.40% |        1841      6.30%     93.70% |        1841      6.30%    100.00% (Unspecified)
board.cache_hierarchy.ruby_system.L2Cache_Controller.SS.L1_GETS::total        29212                       (Unspecified)
board.cache_hierarchy.ruby_system.L2Cache_Controller.SS.L1_GETX |           0      0.00%      0.00% |           0      0.00%      0.00% |           0      0.00%      0.00% |           0      0.00%      0.00% |           0      0.00%      0.00% |           0      0.00%      0.00% |           0      0.00%      0.00% |           0      0.00%      0.00% |           0      0.00%      0.00% |           0      0.00%      0.00% |           4    100.00%    100.00% |           0      0.00%    100.00% |           0      0.00%    100.00% |           0      0.00%    100.00% |           0      0.00%    100.00% |           0      0.00%    100.00% (Unspecified)
board.cache_hierarchy.ruby_system.L2Cache_Controller.SS.L1_GETX::total            4                       (Unspecified)
board.cache_hierarchy.ruby_system.L2Cache_Controller.SS.L1_UPGRADE |           2      0.90%      0.90% |          52     23.53%     24.43% |          28     12.67%     37.10% |          13      5.88%     42.99% |          14      6.33%     49.32% |          32     14.48%     63.80% |           9      4.07%     67.87% |           5      2.26%     70.14% |           0      0.00%     70.14% |           2      0.90%     71.04% |          25     11.31%     82.35% |           0      0.00%     82.35% |          18      8.14%     90.50% |           2      0.90%     91.40% |          17      7.69%     99.10% |           2      0.90%    100.00% (Unspecified)
board.cache_hierarchy.ruby_system.L2Cache_Controller.SS.L1_UPGRADE::total          221                       (Unspecified)
board.cache_hierarchy.ruby_system.L2Cache_Controller.M.L1_GETS |         123      6.08%      6.08% |         143      7.07%     13.14% |         131      6.47%     19.61% |         147      7.26%     26.88% |         134      6.62%     33.50% |         140      6.92%     40.42% |         134      6.62%     47.04% |         130      6.42%     53.46% |         135      6.67%     60.13% |         112      5.53%     65.66% |         115      5.68%     71.34% |         111      5.48%     76.83% |         118      5.83%     82.66% |         123      6.08%     88.74% |         116      5.73%     94.47% |         112      5.53%    100.00% (Unspecified)
board.cache_hierarchy.ruby_system.L2Cache_Controller.M.L1_GETS::total         2024                       (Unspecified)
board.cache_hierarchy.ruby_system.L2Cache_Controller.M.L1_GETX |           2      2.50%      2.50% |           3      3.75%      6.25% |           2      2.50%      8.75% |           3      3.75%     12.50% |          21     26.25%     38.75% |          19     23.75%     62.50% |           2      2.50%     65.00% |           3      3.75%     68.75% |           2      2.50%     71.25% |           1      1.25%     72.50% |           2      2.50%     75.00% |           2      2.50%     77.50% |          14     17.50%     95.00% |           1      1.25%     96.25% |           2      2.50%     98.75% |           1      1.25%    100.00% (Unspecified)
board.cache_hierarchy.ruby_system.L2Cache_Controller.M.L1_GETX::total           80                       (Unspecified)
board.cache_hierarchy.ruby_system.L2Cache_Controller.MT.L1_GETS |         133      5.54%      5.54% |         195      8.12%     13.66% |         176      7.33%     20.98% |         160      6.66%     27.64% |         145      6.04%     33.68% |         177      7.37%     41.05% |         141      5.87%     46.92% |         134      5.58%     52.50% |         133      5.54%     58.03% |         150      6.24%     64.28% |         160      6.66%     70.94% |         129      5.37%     76.31% |         150      6.24%     82.56% |         138      5.75%     88.30% |         149      6.20%     94.50% |         132      5.50%    100.00% (Unspecified)
board.cache_hierarchy.ruby_system.L2Cache_Controller.MT.L1_GETS::total         2402                       (Unspecified)
board.cache_hierarchy.ruby_system.L2Cache_Controller.MT.L1_GETX |          12      5.31%      5.31% |           7      3.10%      8.41% |           0      0.00%      8.41% |           0      0.00%      8.41% |          20      8.85%     17.26% |          28     12.39%     29.65% |          24     10.62%     40.27% |          28     12.39%     52.65% |          28     12.39%     65.04% |          12      5.31%     70.35% |          28     12.39%     82.74% |          12      5.31%     88.05% |          15      6.64%     94.69% |          12      5.31%    100.00% |           0      0.00%    100.00% |           0      0.00%    100.00% (Unspecified)
board.cache_hierarchy.ruby_system.L2Cache_Controller.MT.L1_GETX::total          226                       (Unspecified)
board.cache_hierarchy.ruby_system.L2Cache_Controller.MT.L1_PUTX |          23      3.94%      3.94% |          52      8.90%     12.84% |          31      5.31%     18.15% |          49      8.39%     26.54% |          62     10.62%     37.16% |          67     11.47%     48.63% |          45      7.71%     56.34% |          46      7.88%     64.21% |          50      8.56%     72.77% |          30      5.14%     77.91% |          28      4.79%     82.71% |          11      1.88%     84.59% |          29      4.97%     89.55% |          38      6.51%     96.06% |          13      2.23%     98.29% |          10      1.71%    100.00% (Unspecified)
board.cache_hierarchy.ruby_system.L2Cache_Controller.MT.L1_PUTX::total          584                       (Unspecified)
board.cache_hierarchy.ruby_system.L2Cache_Controller.ISS.Mem_Data |           0      0.00%      0.00% |           2      3.17%      3.17% |           0      0.00%      3.17% |           0      0.00%      3.17% |          16     25.40%     28.57% |           1      1.59%     30.16% |           2      3.17%     33.33% |           1      1.59%     34.92% |           1      1.59%     36.51% |          17     26.98%     63.49% |           1      1.59%     65.08% |           1      1.59%     66.67% |           2      3.17%     69.84% |           0      0.00%     69.84% |           2      3.17%     73.02% |          17     26.98%    100.00% (Unspecified)
board.cache_hierarchy.ruby_system.L2Cache_Controller.ISS.Mem_Data::total           63                       (Unspecified)
board.cache_hierarchy.ruby_system.L2Cache_Controller.IS.L1_GET_INSTR |           0      0.00%      0.00% |           0      0.00%      0.00% |           0      0.00%      0.00% |           0      0.00%      0.00% |           0      0.00%      0.00% |           0      0.00%      0.00% |           1     20.00%     20.00% |           2     40.00%     60.00% |           0      0.00%     60.00% |           2     40.00%    100.00% |           0      0.00%    100.00% |           0      0.00%    100.00% |           0      0.00%    100.00% |           0      0.00%    100.00% |           0      0.00%    100.00% |           0      0.00%    100.00% (Unspecified)
board.cache_hierarchy.ruby_system.L2Cache_Controller.IS.L1_GET_INSTR::total            5                       (Unspecified)
board.cache_hierarchy.ruby_system.L2Cache_Controller.IS.Mem_Data |          26      6.74%      6.74% |          24      6.22%     12.95% |          27      6.99%     19.95% |          28      7.25%     27.20% |          27      6.99%     34.20% |          27      6.99%     41.19% |          26      6.74%     47.93% |          22      5.70%     53.63% |          18      4.66%     58.29% |          21      5.44%     63.73% |          20      5.18%     68.91% |          22      5.70%     74.61% |          27      6.99%     81.61% |          23      5.96%     87.56% |          23      5.96%     93.52% |          25      6.48%    100.00% (Unspecified)
board.cache_hierarchy.ruby_system.L2Cache_Controller.IS.Mem_Data::total          386                       (Unspecified)
board.cache_hierarchy.ruby_system.L2Cache_Controller.IM.Mem_Data |          34      4.86%      4.86% |          46      6.58%     11.44% |          50      7.15%     18.60% |          51      7.30%     25.89% |          51      7.30%     33.19% |          67      9.59%     42.78% |          51      7.30%     50.07% |          50      7.15%     57.22% |          51      7.30%     64.52% |          35      5.01%     69.53% |          34      4.86%     74.39% |          19      2.72%     77.11% |          35      5.01%     82.12% |          51      7.30%     89.41% |          44      6.29%     95.71% |          30      4.29%    100.00% (Unspecified)
board.cache_hierarchy.ruby_system.L2Cache_Controller.IM.Mem_Data::total          699                       (Unspecified)
board.cache_hierarchy.ruby_system.L2Cache_Controller.SS_MB.L1_GETS |           0      0.00%      0.00% |           0      0.00%      0.00% |           0      0.00%      0.00% |           0      0.00%      0.00% |           0      0.00%      0.00% |           2     40.00%     40.00% |           0      0.00%     40.00% |           0      0.00%     40.00% |           0      0.00%     40.00% |           0      0.00%     40.00% |           3     60.00%    100.00% |           0      0.00%    100.00% |           0      0.00%    100.00% |           0      0.00%    100.00% |           0      0.00%    100.00% |           0      0.00%    100.00% (Unspecified)
board.cache_hierarchy.ruby_system.L2Cache_Controller.SS_MB.L1_GETS::total            5                       (Unspecified)
board.cache_hierarchy.ruby_system.L2Cache_Controller.SS_MB.L1_GETX |           0      0.00%      0.00% |           0      0.00%      0.00% |           0      0.00%      0.00% |           0      0.00%      0.00% |           0      0.00%      0.00% |           0      0.00%      0.00% |           0      0.00%      0.00% |           0      0.00%      0.00% |           0      0.00%      0.00% |           0      0.00%      0.00% |           4    100.00%    100.00% |           0      0.00%    100.00% |           0      0.00%    100.00% |           0      0.00%    100.00% |           0      0.00%    100.00% |           0      0.00%    100.00% (Unspecified)
board.cache_hierarchy.ruby_system.L2Cache_Controller.SS_MB.L1_GETX::total            4                       (Unspecified)
board.cache_hierarchy.ruby_system.L2Cache_Controller.SS_MB.L1_UPGRADE |           0      0.00%      0.00% |           0      0.00%      0.00% |           0      0.00%      0.00% |           0      0.00%      0.00% |           0      0.00%      0.00% |           0      0.00%      0.00% |           0      0.00%      0.00% |           0      0.00%      0.00% |           0      0.00%      0.00% |           0      0.00%      0.00% |           3    100.00%    100.00% |           0      0.00%    100.00% |           0      0.00%    100.00% |           0      0.00%    100.00% |           0      0.00%    100.00% |           0      0.00%    100.00% (Unspecified)
board.cache_hierarchy.ruby_system.L2Cache_Controller.SS_MB.L1_UPGRADE::total            3                       (Unspecified)
board.cache_hierarchy.ruby_system.L2Cache_Controller.SS_MB.Exclusive_Unblock |           2      0.89%      0.89% |          52     23.11%     24.00% |          28     12.44%     36.44% |          13      5.78%     42.22% |          14      6.22%     48.44% |          32     14.22%     62.67% |           9      4.00%     66.67% |           5      2.22%     68.89% |           0      0.00%     68.89% |           2      0.89%     69.78% |          29     12.89%     82.67% |           0      0.00%     82.67% |          18      8.00%     90.67% |           2      0.89%     91.56% |          17      7.56%     99.11% |           2      0.89%    100.00% (Unspecified)
board.cache_hierarchy.ruby_system.L2Cache_Controller.SS_MB.Exclusive_Unblock::total          225                       (Unspecified)
board.cache_hierarchy.ruby_system.L2Cache_Controller.MT_MB.L1_GETS |           0      0.00%      0.00% |           0      0.00%      0.00% |           0      0.00%      0.00% |           0      0.00%      0.00% |           0      0.00%      0.00% |           0      0.00%      0.00% |           0      0.00%      0.00% |           0      0.00%      0.00% |           0      0.00%      0.00% |           0      0.00%      0.00% |           4    100.00%    100.00% |           0      0.00%    100.00% |           0      0.00%    100.00% |           0      0.00%    100.00% |           0      0.00%    100.00% |           0      0.00%    100.00% (Unspecified)
board.cache_hierarchy.ruby_system.L2Cache_Controller.MT_MB.L1_GETS::total            4                       (Unspecified)
board.cache_hierarchy.ruby_system.L2Cache_Controller.MT_MB.L1_GETX |           0      0.00%      0.00% |           0      0.00%      0.00% |           0      0.00%      0.00% |           0      0.00%      0.00% |           0      0.00%      0.00% |           0      0.00%      0.00% |           0      0.00%      0.00% |           0      0.00%      0.00% |           0      0.00%      0.00% |           0      0.00%      0.00% |           5    100.00%    100.00% |           0      0.00%    100.00% |           0      0.00%    100.00% |           0      0.00%    100.00% |           0      0.00%    100.00% |           0      0.00%    100.00% (Unspecified)
board.cache_hierarchy.ruby_system.L2Cache_Controller.MT_MB.L1_GETX::total            5                       (Unspecified)
board.cache_hierarchy.ruby_system.L2Cache_Controller.MT_MB.Exclusive_Unblock |         171      5.53%      5.53% |         201      6.50%     12.03% |         183      5.92%     17.95% |         201      6.50%     24.45% |         242      7.83%     32.28% |         255      8.25%     40.52% |         213      6.89%     47.41% |         212      6.86%     54.27% |         217      7.02%     61.29% |         177      5.72%     67.01% |         180      5.82%     72.83% |         145      4.69%     77.52% |         184      5.95%     83.47% |         187      6.05%     89.52% |         164      5.30%     94.83% |         160      5.17%    100.00% (Unspecified)
board.cache_hierarchy.ruby_system.L2Cache_Controller.MT_MB.Exclusive_Unblock::total         3092                       (Unspecified)
board.cache_hierarchy.ruby_system.L2Cache_Controller.MT_IIB.L1_GETS |           0      0.00%      0.00% |          10      0.97%      0.97% |          89      8.66%      9.63% |          90      8.75%     18.39% |          91      8.85%     27.24% |          75      7.30%     34.53% |          70      6.81%     41.34% |          70      6.81%     48.15% |          67      6.52%     54.67% |          65      6.32%     60.99% |          67      6.52%     67.51% |          62      6.03%     73.54% |          69      6.71%     80.25% |          71      6.91%     87.16% |          68      6.61%     93.77% |          64      6.23%    100.00% (Unspecified)
board.cache_hierarchy.ruby_system.L2Cache_Controller.MT_IIB.L1_GETS::total         1028                       (Unspecified)
board.cache_hierarchy.ruby_system.L2Cache_Controller.MT_IIB.L1_GETX |           0      0.00%      0.00% |           0      0.00%      0.00% |           0      0.00%      0.00% |           0      0.00%      0.00% |           0      0.00%      0.00% |           0      0.00%      0.00% |           0      0.00%      0.00% |           0      0.00%      0.00% |           0      0.00%      0.00% |           0      0.00%      0.00% |           4    100.00%    100.00% |           0      0.00%    100.00% |           0      0.00%    100.00% |           0      0.00%    100.00% |           0      0.00%    100.00% |           0      0.00%    100.00% (Unspecified)
board.cache_hierarchy.ruby_system.L2Cache_Controller.MT_IIB.L1_GETX::total            4                       (Unspecified)
board.cache_hierarchy.ruby_system.L2Cache_Controller.MT_IIB.WB_Data |          25      4.69%      4.69% |          65     12.20%     16.89% |          62     11.63%     28.52% |          28      5.25%     33.77% |          30      5.63%     39.40% |          57     10.69%     50.09% |          25      4.69%     54.78% |          21      3.94%     58.72% |          19      3.56%     62.29% |          37      6.94%     69.23% |          35      6.57%     75.80% |          19      3.56%     79.36% |          35      6.57%     85.93% |          21      3.94%     89.87% |          33      6.19%     96.06% |          21      3.94%    100.00% (Unspecified)
board.cache_hierarchy.ruby_system.L2Cache_Controller.MT_IIB.WB_Data::total          533                       (Unspecified)
board.cache_hierarchy.ruby_system.L2Cache_Controller.MT_IIB.WB_Data_clean |         107      5.94%      5.94% |         107      5.94%     11.89% |         113      6.28%     18.17% |         115      6.39%     24.56% |         113      6.28%     30.83% |         119      6.61%     37.44% |         115      6.39%     43.83% |         112      6.22%     50.06% |         112      6.22%     56.28% |         110      6.11%     62.39% |         113      6.28%     68.67% |         109      6.06%     74.72% |         114      6.33%     81.06% |         116      6.44%     87.50% |         115      6.39%     93.89% |         110      6.11%    100.00% (Unspecified)
board.cache_hierarchy.ruby_system.L2Cache_Controller.MT_IIB.WB_Data_clean::total         1800                       (Unspecified)
board.cache_hierarchy.ruby_system.L2Cache_Controller.MT_IIB.Unblock |           1      1.45%      1.45% |          23     33.33%     34.78% |           1      1.45%     36.23% |          17     24.64%     60.87% |           2      2.90%     63.77% |           1      1.45%     65.22% |           1      1.45%     66.67% |           1      1.45%     68.12% |           2      2.90%     71.01% |           3      4.35%     75.36% |          12     17.39%     92.75% |           1      1.45%     94.20% |           1      1.45%     95.65% |           1      1.45%     97.10% |           1      1.45%     98.55% |           1      1.45%    100.00% (Unspecified)
board.cache_hierarchy.ruby_system.L2Cache_Controller.MT_IIB.Unblock::total           69                       (Unspecified)
board.cache_hierarchy.ruby_system.L2Cache_Controller.MT_IB.WB_Data |           1      2.22%      2.22% |          16     35.56%     37.78% |           1      2.22%     40.00% |           2      4.44%     44.44% |           2      4.44%     48.89% |           1      2.22%     51.11% |           1      2.22%     53.33% |           1      2.22%     55.56% |           1      2.22%     57.78% |           2      4.44%     62.22% |          12     26.67%     88.89% |           1      2.22%     91.11% |           1      2.22%     93.33% |           1      2.22%     95.56% |           1      2.22%     97.78% |           1      2.22%    100.00% (Unspecified)
board.cache_hierarchy.ruby_system.L2Cache_Controller.MT_IB.WB_Data::total           45                       (Unspecified)
[...]
board.processor.cores9.core.commitStats0.committedControl::IsCall         2126                       # Class of control type instructions committed (Count)
board.processor.cores9.core.commitStats0.committedControl::IsReturn         2125                       # Class of control type instructions committed (Count)
board.processor.cores9.core.decode.idleCycles        25790                       # Number of cycles decode is idle (Cycle)
board.processor.cores9.core.decode.blockedCycles       123561                       # Number of cycles decode is blocked (Cycle)
board.processor.cores9.core.decode.runCycles        36098                       # Number of cycles decode is running (Cycle)
board.processor.cores9.core.decode.unblockCycles        10337                       # Number of cycles decode is unblocking (Cycle)
board.processor.cores9.core.decode.squashCycles         2176                       # Number of cycles decode is squashing (Cycle)
board.processor.cores9.core.decode.branchResolved        12746                       # Number of times decode resolved a branch (Count)
board.processor.cores9.core.decode.branchMispred          113                       # Number of times decode detected a branch misprediction (Count)
board.processor.cores9.core.decode.decodedInsts       301169                       # Number of instructions handled by decode (Count)
board.processor.cores9.core.decode.squashedInsts          573                       # Number of squashed instructions handled by decode (Count)
board.processor.cores9.core.executeStats0.numInsts       184382                       # Number of executed instructions (Count)
board.processor.cores9.core.executeStats0.numNop            0                       # Number of nop insts executed (Count)
board.processor.cores9.core.executeStats0.numBranches        10914                       # Number of branches executed (Count)
board.processor.cores9.core.executeStats0.numLoadInsts        45870                       # Number of load instructions executed (Count)
board.processor.cores9.core.executeStats0.numStoreInsts        16970                       # Number of stores executed (Count)
board.processor.cores9.core.executeStats0.instRate     0.930635                       # Inst execution rate ((Count/Cycle))
board.processor.cores9.core.executeStats0.numCCRegReads        26917                       # Number of times the CC registers were read (Count)
board.processor.cores9.core.executeStats0.numCCRegWrites        42301                       # Number of times the CC registers were written (Count)
board.processor.cores9.core.executeStats0.numFpRegReads           21                       # Number of times the floating registers were read (Count)
board.processor.cores9.core.executeStats0.numFpRegWrites           12                       # Number of times the floating registers were written (Count)
board.processor.cores9.core.executeStats0.numIntRegReads       244467                       # Number of times the integer registers were read (Count)
board.processor.cores9.core.executeStats0.numIntRegWrites       141528                       # Number of times the integer registers were written (Count)
board.processor.cores9.core.executeStats0.numMemRefs        62840                       # Number of memory refs (Count)
board.processor.cores9.core.executeStats0.numMiscRegReads        86716                       # Number of times the Misc registers were read (Count)
board.processor.cores9.core.executeStats0.numMiscRegWrites            1                       # Number of times the Misc registers were written (Count)
board.processor.cores9.core.executeStats0.numVecAluAccesses            0                       # Number of vector alu accesses (Count)
board.processor.cores9.core.executeStats0.numDiscardedOps            0                       # Number of ops (including micro ops) which were discarded before commit (Count)
board.processor.cores9.core.fetch.predictedBranches        21045                       # Number of branches that fetch has predicted taken (Count)
board.processor.cores9.core.fetch.cycles       155280                       # Number of cycles fetch has run and was not squashing or blocked (Cycle)
board.processor.cores9.core.fetch.squashCycles         4574                       # Number of cycles fetch has spent squashing (Cycle)
board.processor.cores9.core.fetch.miscStallCycles           30                       # Number of cycles fetch has spent waiting on interrupts, or bad addresses, or out of MSHRs (Cycle)
board.processor.cores9.core.fetch.pendingTrapStallCycles          171                       # Number of stall cycles due to pending traps (Cycle)
board.processor.cores9.core.fetch.cacheLines        35650                       # Number of cache lines fetched (Count)
board.processor.cores9.core.fetch.icacheSquashes           98                       # Number of outstanding Icache misses that were squashed (Count)
board.processor.cores9.core.fetch.nisnDist::samples       197962                       # Number of instructions fetched each cycle (Total) (Count)
board.processor.cores9.core.fetch.nisnDist::mean     1.860564                       # Number of instructions fetched each cycle (Total) (Count)
board.processor.cores9.core.fetch.nisnDist::stdev     3.066822                       # Number of instructions fetched each cycle (Total) (Count)
board.processor.cores9.core.fetch.nisnDist::underflows            0      0.00%      0.00% # Number of instructions fetched each cycle (Total) (Count)
board.processor.cores9.core.fetch.nisnDist::0       132948     67.16%     67.16% # Number of instructions fetched each cycle (Total) (Count)
board.processor.cores9.core.fetch.nisnDist::1           63      0.03%     67.19% # Number of instructions fetched each cycle (Total) (Count)
board.processor.cores9.core.fetch.nisnDist::2        20528     10.37%     77.56% # Number of instructions fetched each cycle (Total) (Count)
board.processor.cores9.core.fetch.nisnDist::3           76      0.04%     77.60% # Number of instructions fetched each cycle (Total) (Count)
board.processor.cores9.core.fetch.nisnDist::4         2139      1.08%     78.68% # Number of instructions fetched each cycle (Total) (Count)
board.processor.cores9.core.fetch.nisnDist::5          147      0.07%     78.75% # Number of instructions fetched each cycle (Total) (Count)
board.processor.cores9.core.fetch.nisnDist::6         8300      4.19%     82.95% # Number of instructions fetched each cycle (Total) (Count)
board.processor.cores9.core.fetch.nisnDist::7         2205      1.11%     84.06% # Number of instructions fetched each cycle (Total) (Count)
board.processor.cores9.core.fetch.nisnDist::8        31556     15.94%    100.00% # Number of instructions fetched each cycle (Total) (Count)
board.processor.cores9.core.fetch.nisnDist::overflows            0      0.00%    100.00% # Number of instructions fetched each cycle (Total) (Count)
board.processor.cores9.core.fetch.nisnDist::min_value            0                       # Number of instructions fetched each cycle (Total) (Count)
board.processor.cores9.core.fetch.nisnDist::max_value            8                       # Number of instructions fetched each cycle (Total) (Count)
board.processor.cores9.core.fetch.nisnDist::total       197962                       # Number of instructions fetched each cycle (Total) (Count)
board.processor.cores9.core.fetchStats0.numInsts       252672                       # Number of instructions fetched (thread level) (Count)
board.processor.cores9.core.fetchStats0.numOps            0                       # Number of ops (including micro ops) fetched (thread level) (Count)
board.processor.cores9.core.fetchStats0.fetchRate     1.275316                       # Number of inst fetches per cycle ((Count/Cycle))
board.processor.cores9.core.fetchStats0.numBranches        21630                       # Number of branches fetched (Count)
board.processor.cores9.core.fetchStats0.branchRate     0.109174                       # Number of branch fetches per cycle (Ratio)
board.processor.cores9.core.fetchStats0.icacheStallCycles        40194                       # ICache total stall cycles (Cycle)
board.processor.cores9.core.fetchStats0.numFetchSuspends            0                       # Number of times Execute suspended instruction fetching (Count)
board.processor.cores9.core.iew.idleCycles            0                       # Number of cycles IEW is idle (Cycle)
board.processor.cores9.core.iew.squashCycles         2176                       # Number of cycles IEW is squashing (Cycle)
board.processor.cores9.core.iew.blockCycles        65541                       # Number of cycles IEW is blocking (Cycle)
board.processor.cores9.core.iew.unblockCycles         5915                       # Number of cycles IEW is unblocking (Cycle)
board.processor.cores9.core.iew.dispatchedInsts       284037                       # Number of instructions dispatched to IQ (Count)
board.processor.cores9.core.iew.dispSquashedInsts           24                       # Number of squashed instructions skipped by dispatch (Count)
board.processor.cores9.core.iew.dispLoadInsts        72738                       # Number of dispatched load instructions (Count)
board.processor.cores9.core.iew.dispStoreInsts        33486                       # Number of dispatched store instructions (Count)
board.processor.cores9.core.iew.dispNonSpecInsts         4129                       # Number of dispatched non-speculative instructions (Count)
board.processor.cores9.core.iew.iqFullEvents         1943                       # Number of times the IQ has become full, causing a stall (Count)
board.processor.cores9.core.iew.lsqFullEvents            1                       # Number of times the LSQ has become full, causing a stall (Count)
board.processor.cores9.core.iew.memOrderViolationEvents         2057                       # Number of memory order violations (Count)
board.processor.cores9.core.iew.predictedTakenIncorrect            7                       # Number of branches that were predicted taken incorrectly (Count)
board.processor.cores9.core.iew.predictedNotTakenIncorrect          116                       # Number of branches that were predicted not taken incorrectly (Count)
board.processor.cores9.core.iew.branchMispredicts          123                       # Number of branch mispredicts detected at execute (Count)
board.processor.cores9.core.iew.instsToCommit       184340                       # Cumulative count of insts sent to commit (Count)
board.processor.cores9.core.iew.writebackCount       184236                       # Cumulative count of insts written-back (Count)
board.processor.cores9.core.iew.producerInst       128949                       # Number of instructions producing a value (Count)
board.processor.cores9.core.iew.consumerInst       245889                       # Number of instructions consuming a value (Count)
board.processor.cores9.core.iew.wbRate       0.929898                       # Insts written-back per cycle ((Count/Cycle))
board.processor.cores9.core.iew.wbFanout     0.524420                       # Average fanout of values written-back ((Count/Count))
board.processor.cores9.core.interrupts.clk_domain.clock         8000                       # Clock period in ticks (Tick)
board.processor.cores9.core.lsq0.forwLoads         4287                       # Number of loads that had data forwarded from stores (Count)
board.processor.cores9.core.lsq0.squashedLoads        43500                       # Number of loads squashed (Count)
board.processor.cores9.core.lsq0.ignoredResponses            0                       # Number of memory responses ignored because the instruction is squashed (Count)
board.processor.cores9.core.lsq0.memOrderViolation         2057                       # Number of memory ordering violations (Count)
board.processor.cores9.core.lsq0.squashedStores        20758                       # Number of stores squashed (Count)
board.processor.cores9.core.lsq0.rescheduledLoads            0                       # Number of loads that were rescheduled (Count)
board.processor.cores9.core.lsq0.blockedByCache            3                       # Number of times an access to memory failed due to the cache being blocked (Count)
board.processor.cores9.core.lsq0.loadToUse::samples        29238                       # Distribution of cycle latency between the first time a load is issued and its completion (Unspecified)
board.processor.cores9.core.lsq0.loadToUse::mean     4.292770                       # Distribution of cycle latency between the first time a load is issued and its completion (Unspecified)
board.processor.cores9.core.lsq0.loadToUse::stdev     5.360244                       # Distribution of cycle latency between the first time a load is issued and its completion (Unspecified)
board.processor.cores9.core.lsq0.loadToUse::0-9        27127     92.78%     92.78% # Distribution of cycle latency between the first time a load is issued and its completion (Unspecified)
board.processor.cores9.core.lsq0.loadToUse::10-19          134      0.46%     93.24% # Distribution of cycle latency between the first time a load is issued and its completion (Unspecified)
board.processor.cores9.core.lsq0.loadToUse::20-29         1956      6.69%     99.93% # Distribution of cycle latency between the first time a load is issued and its completion (Unspecified)
board.processor.cores9.core.lsq0.loadToUse::30-39           17      0.06%     99.99% # Distribution of cycle latency between the first time a load is issued and its completion (Unspecified)
board.processor.cores9.core.lsq0.loadToUse::60-69            1      0.00%     99.99% # Distribution of cycle latency between the first time a load is issued and its completion (Unspecified)
board.processor.cores9.core.lsq0.loadToUse::100-109            1      0.00%     99.99% # Distribution of cycle latency between the first time a load is issued and its completion (Unspecified)
board.processor.cores9.core.lsq0.loadToUse::110-119            1      0.00%    100.00% # Distribution of cycle latency between the first time a load is issued and its completion (Unspecified)
board.processor.cores9.core.lsq0.loadToUse::160-169            1      0.00%    100.00% # Distribution of cycle latency between the first time a load is issued and its completion (Unspecified)
board.processor.cores9.core.lsq0.loadToUse::min_value            2                       # Distribution of cycle latency between the first time a load is issued and its completion (Unspecified)
board.processor.cores9.core.lsq0.loadToUse::max_value          167                       # Distribution of cycle latency between the first time a load is issued and its completion (Unspecified)
board.processor.cores9.core.lsq0.loadToUse::total        29238                       # Distribution of cycle latency between the first time a load is issued and its completion (Unspecified)
board.processor.cores9.core.mmu.dtb.rdAccesses        45865                       # TLB accesses on read requests (Count)
board.processor.cores9.core.mmu.dtb.wrAccesses        16970                       # TLB accesses on write requests (Count)
board.processor.cores9.core.mmu.dtb.rdMisses          103                       # TLB misses on read requests (Count)
board.processor.cores9.core.mmu.dtb.wrMisses           11                       # TLB misses on write requests (Count)
board.processor.cores9.core.mmu.dtb.walker.power_state.pwrStateResidencyTicks::UNDEFINED    433871500                       # Cumulative time (in ticks) in various power states (Tick)
board.processor.cores9.core.mmu.itb.rdAccesses            0                       # TLB accesses on read requests (Count)
board.processor.cores9.core.mmu.itb.wrAccesses        35680                       # TLB accesses on write requests (Count)
board.processor.cores9.core.mmu.itb.rdMisses            0                       # TLB misses on read requests (Count)
board.processor.cores9.core.mmu.itb.wrMisses           83                       # TLB misses on write requests (Count)
board.processor.cores9.core.mmu.itb.walker.power_state.pwrStateResidencyTicks::UNDEFINED    433871500                       # Cumulative time (in ticks) in various power states (Tick)
board.processor.cores9.core.power_state.pwrStateResidencyTicks::ON    433871500                       # Cumulative time (in ticks) in various power states (Tick)
board.processor.cores9.core.rename.squashCycles         2176                       # Number of cycles rename is squashing (Cycle)
board.processor.cores9.core.rename.idleCycles        30033                       # Number of cycles rename is idle (Cycle)
board.processor.cores9.core.rename.blockCycles        98494                       # Number of cycles rename is blocking (Cycle)
board.processor.cores9.core.rename.serializeStallCycles            0                       # count of cycles rename stalled for serializing inst (Cycle)
board.processor.cores9.core.rename.runCycles        42178                       # Number of cycles rename is running (Cycle)
board.processor.cores9.core.rename.unblockCycles        25081                       # Number of cycles rename is unblocking (Cycle)
board.processor.cores9.core.rename.renamedInsts       300867                       # Number of instructions processed by rename (Count)
board.processor.cores9.core.rename.IQFullEvents        24651                       # Number of times rename has blocked due to IQ full (Count)
board.processor.cores9.core.rename.LQFullEvents           63                       # Number of times rename has blocked due to LQ full (Count)
board.processor.cores9.core.rename.SQFullEvents          353                       # Number of times rename has blocked due to SQ full (Count)
board.processor.cores9.core.rename.renamedOperands       429086                       # Number of destination operands rename has renamed (Count)
board.processor.cores9.core.rename.lookups       943451                       # Number of register rename lookups that rename has made (Count)
board.processor.cores9.core.rename.intLookups       443898                       # Number of integer rename lookups (Count)
board.processor.cores9.core.rename.fpLookups           21                       # Number of floating rename lookups (Count)
board.processor.cores9.core.rename.committedMaps       159435                       # Number of HB maps that are committed (Count)
board.processor.cores9.core.rename.undoneMaps       269651                       # Number of HB maps that are undone due to squashing (Count)
board.processor.cores9.core.rename.serializing            0                       # count of serializing insts renamed (Count)
board.processor.cores9.core.rename.tempSerializing            0                       # count of temporary serializing insts renamed (Count)
board.processor.cores9.core.rename.skidInsts        59777                       # count of insts added to the skid buffer (Count)
board.processor.cores9.core.rob.reads          456570                       # The number of ROB reads (Count)
board.processor.cores9.core.rob.writes         590776                       # The number of ROB writes (Count)
board.processor.cores9.core.thread_0.numInsts        73624                       # Number of Instructions committed (Count)
board.processor.cores9.core.thread_0.numOps       110623                       # Number of Ops committed (Count)
board.processor.cores9.core.thread_0.numMemRefs            0                       # Number of Memory References (Count)
board.workload.inst.arm                             0                       # number of arm instructions executed (Count)
board.workload.inst.quiesce                         0                       # number of quiesce instructions executed (Count)

---------- End Simulation Statistics   ----------
