
---------- Begin Simulation Statistics ----------
simSeconds                                   0.000518                       # Number of seconds simulated (Second)
simTicks                                    518278000                       # Number of ticks simulated (Tick)
finalTick                                   790466000                       # Number of ticks from beginning of simulation (restored from checkpoints and never reset) (Tick)
simFreq                                  1000000000000                       # The number of ticks per simulated second ((Tick/Second))
hostSeconds                                     39.08                       # Real time elapsed on the host (Second)
hostTickRate                                 13262751                       # The number of ticks simulated per host second (ticks/s) ((Tick/Second))
hostMemory                                    1754552                       # Number of bytes of host memory used (Byte)
simInsts                                      1567382                       # Number of instructions simulated (Count)
simOps                                        2497840                       # Number of ops (including micro ops) simulated (Count)
hostInstRate                                    40109                       # Simulator instruction rate (inst/s) ((Count/Second))
hostOpRate                                      63919                       # Simulator op (including micro ops) rate (op/s) ((Count/Second))
board.cache_hierarchy.ruby_system.delayHistogram::bucket_size          256                       # delay histogram for all message (Unspecified)
board.cache_hierarchy.ruby_system.delayHistogram::max_bucket         2559                       # delay histogram for all message (Unspecified)
board.cache_hierarchy.ruby_system.delayHistogram::samples       220465                       # delay histogram for all message (Unspecified)
board.cache_hierarchy.ruby_system.delayHistogram::mean   292.108720                       # delay histogram for all message (Unspecified)
board.cache_hierarchy.ruby_system.delayHistogram::stdev   736.059855                       # delay histogram for all message (Unspecified)
board.cache_hierarchy.ruby_system.delayHistogram |      189232     85.83%     85.83% |         686      0.31%     86.14% |         606      0.27%     86.42% |         762      0.35%     86.76% |         652      0.30%     87.06% |         592      0.27%     87.33% |         775      0.35%     87.68% |        1135      0.51%     88.20% |       24907     11.30%     99.49% |        1118      0.51%    100.00% # delay histogram for all message (Unspecified)
board.cache_hierarchy.ruby_system.delayHistogram::total       220465                       # delay histogram for all message (Unspecified)
board.cache_hierarchy.ruby_system.m_outstandReqHistSeqr::bucket_size            2                       (Unspecified)
board.cache_hierarchy.ruby_system.m_outstandReqHistSeqr::max_bucket           19                       (Unspecified)
board.cache_hierarchy.ruby_system.m_outstandReqHistSeqr::samples      1169117                       (Unspecified)
board.cache_hierarchy.ruby_system.m_outstandReqHistSeqr::mean     1.290170                       (Unspecified)
board.cache_hierarchy.ruby_system.m_outstandReqHistSeqr::gmean     1.217166                       (Unspecified)
board.cache_hierarchy.ruby_system.m_outstandReqHistSeqr::stdev     0.506373                       (Unspecified)
board.cache_hierarchy.ruby_system.m_outstandReqHistSeqr |      845168     72.29%     72.29% |      321211     27.47%     99.77% |        2232      0.19%     99.96% |         245      0.02%     99.98% |         129      0.01%     99.99% |          61      0.01%     99.99% |          22      0.00%    100.00% |          34      0.00%    100.00% |          15      0.00%    100.00% |           0      0.00%    100.00% (Unspecified)
board.cache_hierarchy.ruby_system.m_outstandReqHistSeqr::total      1169117                       (Unspecified)
board.cache_hierarchy.ruby_system.m_latencyHistSeqr::bucket_size          128                       (Unspecified)
board.cache_hierarchy.ruby_system.m_latencyHistSeqr::max_bucket         1279                       (Unspecified)
board.cache_hierarchy.ruby_system.m_latencyHistSeqr::samples      1169626                       (Unspecified)
board.cache_hierarchy.ruby_system.m_latencyHistSeqr::mean    11.481863                       (Unspecified)
board.cache_hierarchy.ruby_system.m_latencyHistSeqr::gmean     1.301406                       (Unspecified)
board.cache_hierarchy.ruby_system.m_latencyHistSeqr::stdev    58.837535                       (Unspecified)
board.cache_hierarchy.ruby_system.m_latencyHistSeqr |     1138083     97.30%     97.30% |        1929      0.16%     97.47% |       28088      2.40%     99.87% |        1515      0.13%    100.00% |           0      0.00%    100.00% |           3      0.00%    100.00% |           8      0.00%    100.00% |           0      0.00%    100.00% |           0      0.00%    100.00% |           0      0.00%    100.00% (Unspecified)
board.cache_hierarchy.ruby_system.m_latencyHistSeqr::total      1169626                       (Unspecified)
board.cache_hierarchy.ruby_system.m_hitLatencyHistSeqr::bucket_size           16                       (Unspecified)
board.cache_hierarchy.ruby_system.m_hitLatencyHistSeqr::max_bucket          159                       (Unspecified)
board.cache_hierarchy.ruby_system.m_hitLatencyHistSeqr::samples      1098864                       (Unspecified)
board.cache_hierarchy.ruby_system.m_hitLatencyHistSeqr::mean     1.001137                       (Unspecified)
board.cache_hierarchy.ruby_system.m_hitLatencyHistSeqr::gmean     1.000360                       (Unspecified)
board.cache_hierarchy.ruby_system.m_hitLatencyHistSeqr::stdev     0.251681                       (Unspecified)
board.cache_hierarchy.ruby_system.m_hitLatencyHistSeqr |     1098856    100.00%    100.00% |           0      0.00%    100.00% |           0      0.00%    100.00% |           1      0.00%    100.00% |           1      0.00%    100.00% |           2      0.00%    100.00% |           3      0.00%    100.00% |           1      0.00%    100.00% |           0      0.00%    100.00% |           0      0.00%    100.00% (Unspecified)
board.cache_hierarchy.ruby_system.m_hitLatencyHistSeqr::total      1098864                       (Unspecified)
board.cache_hierarchy.ruby_system.m_missLatencyHistSeqr::bucket_size          128                       (Unspecified)
board.cache_hierarchy.ruby_system.m_missLatencyHistSeqr::max_bucket         1279                       (Unspecified)
board.cache_hierarchy.ruby_system.m_missLatencyHistSeqr::samples        70762                       (Unspecified)
board.cache_hierarchy.ruby_system.m_missLatencyHistSeqr::mean   174.237204                       (Unspecified)
board.cache_hierarchy.ruby_system.m_missLatencyHistSeqr::gmean    77.393330                       (Unspecified)
board.cache_hierarchy.ruby_system.m_missLatencyHistSeqr::stdev   170.368241                       (Unspecified)
board.cache_hierarchy.ruby_system.m_missLatencyHistSeqr |       39219     55.42%     55.42% |        1929      2.73%     58.15% |       28088     39.69%     97.84% |        1515      2.14%     99.98% |           0      0.00%     99.98% |           3      0.00%     99.99% |           8      0.01%    100.00% |           0      0.00%    100.00% |           0      0.00%    100.00% |           0      0.00%    100.00% (Unspecified)
board.cache_hierarchy.ruby_system.m_missLatencyHistSeqr::total        70762                       (Unspecified)
board.cache_hierarchy.ruby_system.delayVCHist.vnet_0::bucket_size          256                       # delay histogram for vnet_0 (Unspecified)
board.cache_hierarchy.ruby_system.delayVCHist.vnet_0::max_bucket         2559                       # delay histogram for vnet_0 (Unspecified)
board.cache_hierarchy.ruby_system.delayVCHist.vnet_0::samples       109754                       # delay histogram for vnet_0 (Unspecified)
board.cache_hierarchy.ruby_system.delayVCHist.vnet_0::mean   586.574366                       # delay histogram for vnet_0 (Unspecified)
board.cache_hierarchy.ruby_system.delayVCHist.vnet_0::stdev   956.882252                       # delay histogram for vnet_0 (Unspecified)
board.cache_hierarchy.ruby_system.delayVCHist.vnet_0 |       78521     71.54%     71.54% |         686      0.63%     72.17% |         606      0.55%     72.72% |         762      0.69%     73.41% |         652      0.59%     74.01% |         592      0.54%     74.55% |         775      0.71%     75.25% |        1135      1.03%     76.29% |       24907     22.69%     98.98% |        1118      1.02%    100.00% # delay histogram for vnet_0 (Unspecified)
board.cache_hierarchy.ruby_system.delayVCHist.vnet_0::total       109754                       # delay histogram for vnet_0 (Unspecified)
board.cache_hierarchy.ruby_system.delayVCHist.vnet_1::bucket_size            4                       # delay histogram for vnet_1 (Unspecified)
board.cache_hierarchy.ruby_system.delayVCHist.vnet_1::max_bucket           39                       # delay histogram for vnet_1 (Unspecified)
board.cache_hierarchy.ruby_system.delayVCHist.vnet_1::samples        75173                       # delay histogram for vnet_1 (Unspecified)
board.cache_hierarchy.ruby_system.delayVCHist.vnet_1::mean     0.277493                       # delay histogram for vnet_1 (Unspecified)
board.cache_hierarchy.ruby_system.delayVCHist.vnet_1::stdev     1.505429                       # delay histogram for vnet_1 (Unspecified)
board.cache_hierarchy.ruby_system.delayVCHist.vnet_1 |       72584     96.56%     96.56% |         354      0.47%     97.03% |        2136      2.84%     99.87% |          42      0.06%     99.92% |          39      0.05%     99.98% |           5      0.01%     99.98% |          11      0.01%    100.00% |           1      0.00%    100.00% |           1      0.00%    100.00% |           0      0.00%    100.00% # delay histogram for vnet_1 (Unspecified)
board.cache_hierarchy.ruby_system.delayVCHist.vnet_1::total        75173                       # delay histogram for vnet_1 (Unspecified)
board.cache_hierarchy.ruby_system.delayVCHist.vnet_2::bucket_size            1                       # delay histogram for vnet_2 (Unspecified)
board.cache_hierarchy.ruby_system.delayVCHist.vnet_2::max_bucket            9                       # delay histogram for vnet_2 (Unspecified)
board.cache_hierarchy.ruby_system.delayVCHist.vnet_2::samples        35538                       # delay histogram for vnet_2 (Unspecified)
board.cache_hierarchy.ruby_system.delayVCHist.vnet_2::mean     0.000169                       # delay histogram for vnet_2 (Unspecified)
board.cache_hierarchy.ruby_system.delayVCHist.vnet_2::stdev     0.018375                       # delay histogram for vnet_2 (Unspecified)
board.cache_hierarchy.ruby_system.delayVCHist.vnet_2 |       35535     99.99%     99.99% |           0      0.00%     99.99% |           3      0.01%    100.00% |           0      0.00%    100.00% |           0      0.00%    100.00% |           0      0.00%    100.00% |           0      0.00%    100.00% |           0      0.00%    100.00% |           0      0.00%    100.00% |           0      0.00%    100.00% # delay histogram for vnet_2 (Unspecified)
board.cache_hierarchy.ruby_system.delayVCHist.vnet_2::total        35538                       # delay histogram for vnet_2 (Unspecified)
board.cache_hierarchy.ruby_system.Directory_Controller.Fetch         1186      0.00%      0.00% (Unspecified)
board.cache_hierarchy.ruby_system.Directory_Controller.Memory_Data         1186      0.00%      0.00% (Unspecified)
board.cache_hierarchy.ruby_system.Directory_Controller.I.Fetch         1186      0.00%      0.00% (Unspecified)
board.cache_hierarchy.ruby_system.Directory_Controller.IM.Memory_Data         1186      0.00%      0.00% (Unspecified)
board.cache_hierarchy.ruby_system.L1Cache_Controller.Load |       13426      5.34%      5.34% |       14906      5.93%     11.27% |       14858      5.91%     17.18% |       14863      5.91%     23.10% |       14852      5.91%     29.01% |       14857      5.91%     34.92% |       14865      5.91%     40.83% |       14863      5.91%     46.75% |       14852      5.91%     52.65% |       14849      5.91%     58.56% |       14854      5.91%     64.47% |       14903      5.93%     70.40% |       14850      5.91%     76.31% |       14885      5.92%     82.23% |       14904      5.93%     88.16% |       14885      5.92%     94.08% |       14870      5.92%    100.00% (Unspecified)
board.cache_hierarchy.ruby_system.L1Cache_Controller.Load::total       251342                       (Unspecified)
board.cache_hierarchy.ruby_system.L1Cache_Controller.Ifetch |       21527      3.27%      3.27% |       39712      6.04%      9.31% |       39737      6.04%     15.35% |       39761      6.04%     21.39% |       39748      6.04%     27.44% |       39739      6.04%     33.48% |       39758      6.04%     39.52% |       39761      6.04%     45.57% |       39736      6.04%     51.61% |       39722      6.04%     57.65% |       39732      6.04%     63.69% |       39862      6.06%     69.75% |       39738      6.04%     75.79% |       39842      6.06%     81.84% |       39853      6.06%     87.90% |       39761      6.04%     93.95% |       39819      6.05%    100.00% (Unspecified)
board.cache_hierarchy.ruby_system.L1Cache_Controller.Ifetch::total       657808                       (Unspecified)
board.cache_hierarchy.ruby_system.L1Cache_Controller.Store |       22332      8.57%      8.57% |       15084      5.79%     14.36% |       14792      5.68%     20.04% |       14792      5.68%     25.72% |       14792      5.68%     31.40% |       14792      5.68%     37.08% |       14792      5.68%     42.76% |       14792      5.68%     48.44% |       14792      5.68%     54.12% |       14792      5.68%     59.80% |       14792      5.68%     65.47% |       15087      5.79%     71.27% |       14792      5.68%     76.94% |       15087      5.79%     82.74% |       15087      5.79%     88.53% |       14792      5.68%     94.21% |       15087      5.79%    100.00% (Unspecified)
board.cache_hierarchy.ruby_system.L1Cache_Controller.Store::total       260476                       (Unspecified)
board.cache_hierarchy.ruby_system.L1Cache_Controller.Inv |          88     33.59%     33.59% |          12      4.58%     38.17% |          12      4.58%     42.75% |          12      4.58%     47.33% |          10      3.82%     51.15% |           9      3.44%     54.58% |          10      3.82%     58.40% |           9      3.44%     61.83% |          10      3.82%     65.65% |          10      3.82%     69.47% |          12      4.58%     74.05% |          12      4.58%     78.63% |          14      5.34%     83.97% |          10      3.82%     87.79% |          12      4.58%     92.37% |          14      5.34%     97.71% |           6      2.29%    100.00% (Unspecified)
board.cache_hierarchy.ruby_system.L1Cache_Controller.Inv::total          262                       (Unspecified)
board.cache_hierarchy.ruby_system.L1Cache_Controller.L1_Replacement |         857      3.20%      3.20% |        1639      6.12%      9.32% |        1613      6.02%     15.34% |        1613      6.02%     21.36% |        1612      6.02%     27.38% |        1613      6.02%     33.40% |        1615      6.03%     39.43% |        1612      6.02%     45.45% |        1612      6.02%     51.47% |        1611      6.01%     57.48% |        1612      6.02%     63.50% |        1639      6.12%     69.62% |        1610      6.01%     75.63% |        1639      6.12%     81.75% |        1640      6.12%     87.87% |        1609      6.01%     93.88% |        1640      6.12%    100.00% (Unspecified)
board.cache_hierarchy.ruby_system.L1Cache_Controller.L1_Replacement::total        26786                       (Unspecified)
board.cache_hierarchy.ruby_system.L1Cache_Controller.Fwd_GETX |          41      0.12%      0.12% |        2002      6.09%      6.21% |        2061      6.27%     12.48% |        2061      6.27%     18.74% |        2061      6.27%     25.01% |        2061      6.27%     31.27% |        2061      6.27%     37.54% |        2061      6.27%     43.80% |        2061      6.27%     50.07% |        2061      6.27%     56.33% |        2061      6.27%     62.60% |        2053      6.24%     68.84% |        2061      6.27%     75.10% |        2051      6.23%     81.34% |        2050      6.23%     87.57% |        2050      6.23%     93.80% |        2039      6.20%    100.00% (Unspecified)
board.cache_hierarchy.ruby_system.L1Cache_Controller.Fwd_GETX::total        32896                       (Unspecified)
board.cache_hierarchy.ruby_system.L1Cache_Controller.Fwd_GETS |         414     17.39%     17.39% |        1809     76.01%     93.40% |          12      0.50%     93.91% |          11      0.46%     94.37% |          12      0.50%     94.87% |          11      0.46%     95.34% |          11      0.46%     95.80% |          11      0.46%     96.26% |          11      0.46%     96.72% |          11      0.46%     97.18% |          12      0.50%     97.69% |           7      0.29%     97.98% |          12      0.50%     98.49% |          11      0.46%     98.95% |           9      0.38%     99.33% |           8      0.34%     99.66% |           8      0.34%    100.00% (Unspecified)
board.cache_hierarchy.ruby_system.L1Cache_Controller.Fwd_GETS::total         2380                       (Unspecified)
board.cache_hierarchy.ruby_system.L1Cache_Controller.Data |           2     50.00%     50.00% |           0      0.00%     50.00% |           0      0.00%     50.00% |           0      0.00%     50.00% |           0      0.00%     50.00% |           0      0.00%     50.00% |           0      0.00%     50.00% |           0      0.00%     50.00% |           0      0.00%     50.00% |           0      0.00%     50.00% |           0      0.00%     50.00% |           1     25.00%     75.00% |           0      0.00%     75.00% |           1     25.00%    100.00% |           0      0.00%    100.00% |           0      0.00%    100.00% |           0      0.00%    100.00% (Unspecified)
board.cache_hierarchy.ruby_system.L1Cache_Controller.Data::total            4                       (Unspecified)
board.cache_hierarchy.ruby_system.L1Cache_Controller.Data_Exclusive |          84      3.98%      3.98% |        1809     85.69%     89.67% |          16      0.76%     90.43% |          13      0.62%     91.05% |          14      0.66%     91.71% |          14      0.66%     92.37% |          14      0.66%     93.04% |          14      0.66%     93.70% |          14      0.66%     94.36% |          15      0.71%     95.07% |          15      0.71%     95.78% |          14      0.66%     96.45% |          14      0.66%     97.11% |          15      0.71%     97.82% |          15      0.71%     98.53% |          16      0.76%     99.29% |          15      0.71%    100.00% (Unspecified)
board.cache_hierarchy.ruby_system.L1Cache_Controller.Data_Exclusive::total         2111                       (Unspecified)
board.cache_hierarchy.ruby_system.L1Cache_Controller.DataS_fromL1 |          47      1.97%      1.97% |         279     11.72%     13.70% |        1815     76.26%     89.96% |          21      0.88%     90.84% |          18      0.76%     91.60% |          19      0.80%     92.39% |          16      0.67%     93.07% |          16      0.67%     93.74% |          16      0.67%     94.41% |          17      0.71%     95.13% |          17      0.71%     95.84% |          18      0.76%     96.60% |          16      0.67%     97.27% |          16      0.67%     97.94% |          16      0.67%     98.61% |          17      0.71%     99.33% |          16      0.67%    100.00% (Unspecified)
board.cache_hierarchy.ruby_system.L1Cache_Controller.DataS_fromL1::total         2380                       (Unspecified)
board.cache_hierarchy.ruby_system.L1Cache_Controller.Data_all_Acks |         762      1.15%      1.15% |        2239      3.39%      4.54% |        2509      3.80%      8.34% |        4311      6.53%     14.87% |        4306      6.52%     21.39% |        4306      6.52%     27.91% |        4316      6.53%     34.44% |        4313      6.53%     40.97% |        4309      6.52%     47.49% |        4306      6.52%     54.01% |        4308      6.52%     60.54% |        4364      6.61%     67.14% |        4308      6.52%     73.66% |        4363      6.61%     80.27% |        4367      6.61%     86.88% |        4311      6.53%     93.41% |        4354      6.59%    100.00% (Unspecified)
board.cache_hierarchy.ruby_system.L1Cache_Controller.Data_all_Acks::total        66052                       (Unspecified)
board.cache_hierarchy.ruby_system.L1Cache_Controller.Ack |          34     13.18%     13.18% |          10      3.88%     17.05% |          13      5.04%     22.09% |          12      4.65%     26.74% |          13      5.04%     31.78% |          13      5.04%     36.82% |          14      5.43%     42.25% |          13      5.04%     47.29% |          14      5.43%     52.71% |          14      5.43%     58.14% |          14      5.43%     63.57% |          27     10.47%     74.03% |          15      5.81%     79.84% |          16      6.20%     86.05% |          12      4.65%     90.70% |          11      4.26%     94.96% |          13      5.04%    100.00% (Unspecified)
board.cache_hierarchy.ruby_system.L1Cache_Controller.Ack::total          258                       (Unspecified)
board.cache_hierarchy.ruby_system.L1Cache_Controller.Ack_all |          29     13.24%     13.24% |          10      4.57%     17.81% |          12      5.48%     23.29% |          12      5.48%     28.77% |          13      5.94%     34.70% |          13      5.94%     40.64% |          13      5.94%     46.58% |          12      5.48%     52.05% |          13      5.94%     57.99% |          13      5.94%     63.93% |          13      5.94%     69.86% |          12      5.48%     75.34% |          12      5.48%     80.82% |          12      5.48%     86.30% |           9      4.11%     90.41% |          11      5.02%     95.43% |          10      4.57%    100.00% (Unspecified)
board.cache_hierarchy.ruby_system.L1Cache_Controller.Ack_all::total          219                       (Unspecified)
board.cache_hierarchy.ruby_system.L1Cache_Controller.WB_Ack |         359     61.58%     61.58% |          13      2.23%     63.81% |          14      2.40%     66.21% |          14      2.40%     68.61% |          14      2.40%     71.01% |          15      2.57%     73.58% |          14      2.40%     75.99% |          14      2.40%     78.39% |          14      2.40%     80.79% |          14      2.40%     83.19% |          14      2.40%     85.59% |          14      2.40%     87.99% |          14      2.40%     90.39% |          14      2.40%     92.80% |          14      2.40%     95.20% |          14      2.40%     97.60% |          14      2.40%    100.00% (Unspecified)
board.cache_hierarchy.ruby_system.L1Cache_Controller.WB_Ack::total          583                       (Unspecified)
board.cache_hierarchy.ruby_system.L1Cache_Controller.NP.Load |         133      0.40%      0.40% |        2090      6.21%      6.61% |        2096      6.23%     12.84% |        2095      6.23%     19.07% |        2096      6.23%     25.30% |        2097      6.23%     31.53% |        2098      6.24%     37.77% |        2094      6.22%     43.99% |        2096      6.23%     50.22% |        2096      6.23%     56.45% |        2097      6.23%     62.69% |        2090      6.21%     68.90% |        2094      6.22%     75.12% |        2090      6.21%     81.34% |        2092      6.22%     87.56% |        2094      6.22%     93.78% |        2092      6.22%    100.00% (Unspecified)
board.cache_hierarchy.ruby_system.L1Cache_Controller.NP.Load::total        33640                       (Unspecified)
board.cache_hierarchy.ruby_system.L1Cache_Controller.NP.Ifetch |         331     10.53%     10.53% |         188      5.98%     16.51% |         168      5.34%     21.85% |         173      5.50%     27.35% |         167      5.31%     32.67% |         167      5.31%     37.98% |         173      5.50%     43.48% |         173      5.50%     48.98% |         168      5.34%     54.33% |         168      5.34%     59.67% |         168      5.34%     65.01% |         191      6.08%     71.09% |         168      5.34%     76.43% |         191      6.08%     82.51% |         191      6.08%     88.58% |         168      5.34%     93.92% |         191      6.08%    100.00% (Unspecified)
board.cache_hierarchy.ruby_system.L1Cache_Controller.NP.Ifetch::total         3144                       (Unspecified)
board.cache_hierarchy.ruby_system.L1Cache_Controller.NP.Store |         393     39.18%     39.18% |          61      6.08%     45.26% |          28      2.79%     48.06% |          29      2.89%     50.95% |          28      2.79%     53.74% |          28      2.79%     56.53% |          28      2.79%     59.32% |          29      2.89%     62.21% |          28      2.79%     65.00% |          27      2.69%     67.70% |          27      2.69%     70.39% |          61      6.08%     76.47% |          28      2.79%     79.26% |          61      6.08%     85.34% |          60      5.98%     91.33% |          27      2.69%     94.02% |          60      5.98%    100.00% (Unspecified)
board.cache_hierarchy.ruby_system.L1Cache_Controller.NP.Store::total         1003                       (Unspecified)
board.cache_hierarchy.ruby_system.L1Cache_Controller.NP.Inv |          12    100.00%    100.00% |           0      0.00%    100.00% |           0      0.00%    100.00% |           0      0.00%    100.00% |           0      0.00%    100.00% |           0      0.00%    100.00% |           0      0.00%    100.00% |           0      0.00%    100.00% |           0      0.00%    100.00% |           0      0.00%    100.00% |           0      0.00%    100.00% |           0      0.00%    100.00% |           0      0.00%    100.00% |           0      0.00%    100.00% |           0      0.00%    100.00% |           0      0.00%    100.00% |           0      0.00%    100.00% (Unspecified)
board.cache_hierarchy.ruby_system.L1Cache_Controller.NP.Inv::total           12                       (Unspecified)
board.cache_hierarchy.ruby_system.L1Cache_Controller.I.Load |          33     55.00%     55.00% |           0      0.00%     55.00% |           1      1.67%     56.67% |           1      1.67%     58.33% |           0      0.00%     58.33% |           0      0.00%     58.33% |           0      0.00%     58.33% |           0      0.00%     58.33% |           0      0.00%     58.33% |           0      0.00%     58.33% |           0      0.00%     58.33% |           7     11.67%     70.00% |           0      0.00%     70.00% |           4      6.67%     76.67% |           6     10.00%     86.67% |           5      8.33%     95.00% |           3      5.00%    100.00% (Unspecified)
board.cache_hierarchy.ruby_system.L1Cache_Controller.I.Load::total           60                       (Unspecified)
board.cache_hierarchy.ruby_system.L1Cache_Controller.I.Store |           5      0.02%      0.02% |        1988      6.08%      6.09% |        2047      6.26%     12.35% |        2047      6.26%     18.61% |        2047      6.26%     24.87% |        2047      6.26%     31.13% |        2047      6.26%     37.39% |        2047      6.26%     43.65% |        2047      6.26%     49.91% |        2047      6.26%     56.17% |        2048      6.26%     62.44% |        2048      6.26%     68.70% |        2048      6.26%     74.96% |        2049      6.27%     81.23% |        2049      6.27%     87.50% |        2050      6.27%     93.76% |        2039      6.24%    100.00% (Unspecified)
board.cache_hierarchy.ruby_system.L1Cache_Controller.I.Store::total        32700                       (Unspecified)
board.cache_hierarchy.ruby_system.L1Cache_Controller.I.L1_Replacement |          58     93.55%     93.55% |           2      3.23%     96.77% |           1      1.61%     98.39% |           1      1.61%    100.00% |           0      0.00%    100.00% |           0      0.00%    100.00% |           0      0.00%    100.00% |           0      0.00%    100.00% |           0      0.00%    100.00% |           0      0.00%    100.00% |           0      0.00%    100.00% |           0      0.00%    100.00% |           0      0.00%    100.00% |           0      0.00%    100.00% |           0      0.00%    100.00% |           0      0.00%    100.00% |           0      0.00%    100.00% (Unspecified)
board.cache_hierarchy.ruby_system.L1Cache_Controller.I.L1_Replacement::total           62                       (Unspecified)
board.cache_hierarchy.ruby_system.L1Cache_Controller.S.Load |         314     20.51%     20.51% |          49      3.20%     23.71% |          69      4.51%     28.22% |          72      4.70%     32.92% |          69      4.51%     37.43% |          73      4.77%     42.19% |          72      4.70%     46.90% |          78      5.09%     51.99% |          67      4.38%     56.37% |          67      4.38%     60.74% |          65      4.25%     64.99% |          91      5.94%     70.93% |          80      5.23%     76.16% |          93      6.07%     82.23% |          93      6.07%     88.31% |          82      5.36%     93.66% |          97      6.34%    100.00% (Unspecified)
board.cache_hierarchy.ruby_system.L1Cache_Controller.S.Load::total         1531                       (Unspecified)
board.cache_hierarchy.ruby_system.L1Cache_Controller.S.Ifetch |       21196      3.24%      3.24% |       39524      6.04%      9.27% |       39569      6.04%     15.32% |       39588      6.05%     21.37% |       39581      6.05%     27.41% |       39572      6.04%     33.46% |       39585      6.05%     39.50% |       39588      6.05%     45.55% |       39568      6.04%     51.59% |       39554      6.04%     57.64% |       39564      6.04%     63.68% |       39671      6.06%     69.74% |       39570      6.04%     75.78% |       39651      6.06%     81.84% |       39662      6.06%     87.90% |       39593      6.05%     93.95% |       39628      6.05%    100.00% (Unspecified)
board.cache_hierarchy.ruby_system.L1Cache_Controller.S.Ifetch::total       654664                       (Unspecified)
board.cache_hierarchy.ruby_system.L1Cache_Controller.S.Store |          27     12.56%     12.56% |          10      4.65%     17.21% |          12      5.58%     22.79% |          12      5.58%     28.37% |          13      6.05%     34.42% |          13      6.05%     40.47% |          13      6.05%     46.51% |          12      5.58%     52.09% |          13      6.05%     58.14% |          13      6.05%     64.19% |          13      6.05%     70.23% |          11      5.12%     75.35% |          12      5.58%     80.93% |          11      5.12%     86.05% |           9      4.19%     90.23% |          11      5.12%     95.35% |          10      4.65%    100.00% (Unspecified)
board.cache_hierarchy.ruby_system.L1Cache_Controller.S.Store::total          215                       (Unspecified)
board.cache_hierarchy.ruby_system.L1Cache_Controller.S.Inv |          76     30.40%     30.40% |          12      4.80%     35.20% |          12      4.80%     40.00% |          12      4.80%     44.80% |          10      4.00%     48.80% |           9      3.60%     52.40% |          10      4.00%     56.40% |           9      3.60%     60.00% |          10      4.00%     64.00% |          10      4.00%     68.00% |          12      4.80%     72.80% |          12      4.80%     77.60% |          14      5.60%     83.20% |          10      4.00%     87.20% |          12      4.80%     92.00% |          14      5.60%     97.60% |           6      2.40%    100.00% (Unspecified)
board.cache_hierarchy.ruby_system.L1Cache_Controller.S.Inv::total          250                       (Unspecified)
board.cache_hierarchy.ruby_system.L1Cache_Controller.S.L1_Replacement |         440      1.68%      1.68% |        1624      6.21%      7.90% |        1598      6.11%     14.01% |        1598      6.11%     20.12% |        1598      6.11%     26.23% |        1598      6.11%     32.35% |        1601      6.12%     38.47% |        1598      6.11%     44.59% |        1598      6.11%     50.70% |        1597      6.11%     56.81% |        1598      6.11%     62.92% |        1625      6.22%     69.14% |        1596      6.11%     75.24% |        1625      6.22%     81.46% |        1626      6.22%     87.68% |        1595      6.10%     93.78% |        1626      6.22%    100.00% (Unspecified)
board.cache_hierarchy.ruby_system.L1Cache_Controller.S.L1_Replacement::total        26141                       (Unspecified)
board.cache_hierarchy.ruby_system.L1Cache_Controller.E.Load |        1720     91.64%     91.64% |          28      1.49%     93.13% |           8      0.43%     93.55% |           8      0.43%     93.98% |           9      0.48%     94.46% |           8      0.43%     94.89% |           8      0.43%     95.31% |           8      0.43%     95.74% |           8      0.43%     96.16% |           8      0.43%     96.59% |           8      0.43%     97.02% |           9      0.48%     97.50% |           8      0.43%     97.92% |          10      0.53%     98.45% |          10      0.53%     98.99% |           9      0.48%     99.47% |          10      0.53%    100.00% (Unspecified)
board.cache_hierarchy.ruby_system.L1Cache_Controller.E.Load::total         1877                       (Unspecified)
board.cache_hierarchy.ruby_system.L1Cache_Controller.E.Store |          30     17.75%     17.75% |           8      4.73%     22.49% |           9      5.33%     27.81% |           8      4.73%     32.54% |           8      4.73%     37.28% |           8      4.73%     42.01% |           8      4.73%     46.75% |           8      4.73%     51.48% |           8      4.73%     56.21% |           9      5.33%     61.54% |           9      5.33%     66.86% |           8      4.73%     71.60% |           9      5.33%     76.92% |           9      5.33%     82.25% |          10      5.92%     88.17% |          10      5.92%     94.08% |          10      5.92%    100.00% (Unspecified)
board.cache_hierarchy.ruby_system.L1Cache_Controller.E.Store::total          169                       (Unspecified)
board.cache_hierarchy.ruby_system.L1Cache_Controller.E.L1_Replacement |          11     39.29%     39.29% |           1      3.57%     42.86% |           1      3.57%     46.43% |           1      3.57%     50.00% |           1      3.57%     53.57% |           2      7.14%     60.71% |           1      3.57%     64.29% |           1      3.57%     67.86% |           1      3.57%     71.43% |           1      3.57%     75.00% |           1      3.57%     78.57% |           1      3.57%     82.14% |           1      3.57%     85.71% |           1      3.57%     89.29% |           1      3.57%     92.86% |           1      3.57%     96.43% |           1      3.57%    100.00% (Unspecified)
board.cache_hierarchy.ruby_system.L1Cache_Controller.E.L1_Replacement::total           28                       (Unspecified)
board.cache_hierarchy.ruby_system.L1Cache_Controller.E.Fwd_GETS |           7      0.38%      0.38% |        1797     98.57%     98.96% |           2      0.11%     99.07% |           1      0.05%     99.12% |           2      0.11%     99.23% |           1      0.05%     99.29% |           1      0.05%     99.34% |           1      0.05%     99.40% |           1      0.05%     99.45% |           1      0.05%     99.51% |           1      0.05%     99.56% |           2      0.11%     99.67% |           1      0.05%     99.73% |           2      0.11%     99.84% |           1      0.05%     99.89% |           1      0.05%     99.95% |           1      0.05%    100.00% (Unspecified)
board.cache_hierarchy.ruby_system.L1Cache_Controller.E.Fwd_GETS::total         1823                       (Unspecified)
board.cache_hierarchy.ruby_system.L1Cache_Controller.M.Load |       11226      5.24%      5.24% |       12739      5.95%     11.19% |       12684      5.92%     17.11% |       12687      5.92%     23.03% |       12678      5.92%     28.95% |       12679      5.92%     34.87% |       12687      5.92%     40.79% |       12683      5.92%     46.71% |       12681      5.92%     52.63% |       12678      5.92%     58.54% |       12684      5.92%     64.47% |       12706      5.93%     70.40% |       12668      5.91%     76.31% |       12688      5.92%     82.23% |       12703      5.93%     88.16% |       12695      5.93%     94.09% |       12668      5.91%    100.00% (Unspecified)
board.cache_hierarchy.ruby_system.L1Cache_Controller.M.Load::total       214234                       (Unspecified)
board.cache_hierarchy.ruby_system.L1Cache_Controller.M.Store |       21877      9.66%      9.66% |       13017      5.75%     15.41% |       12696      5.61%     21.02% |       12696      5.61%     26.63% |       12696      5.61%     32.24% |       12696      5.61%     37.85% |       12696      5.61%     43.45% |       12696      5.61%     49.06% |       12696      5.61%     54.67% |       12696      5.61%     60.28% |       12695      5.61%     65.89% |       12959      5.72%     71.61% |       12695      5.61%     77.22% |       12957      5.72%     82.94% |       12959      5.72%     88.66% |       12694      5.61%     94.27% |       12968      5.73%    100.00% (Unspecified)
board.cache_hierarchy.ruby_system.L1Cache_Controller.M.Store::total       226389                       (Unspecified)
board.cache_hierarchy.ruby_system.L1Cache_Controller.M.L1_Replacement |         348     62.70%     62.70% |          12      2.16%     64.86% |          13      2.34%     67.21% |          13      2.34%     69.55% |          13      2.34%     71.89% |          13      2.34%     74.23% |          13      2.34%     76.58% |          13      2.34%     78.92% |          13      2.34%     81.26% |          13      2.34%     83.60% |          13      2.34%     85.95% |          13      2.34%     88.29% |          13      2.34%     90.63% |          13      2.34%     92.97% |          13      2.34%     95.32% |          13      2.34%     97.66% |          13      2.34%    100.00% (Unspecified)
board.cache_hierarchy.ruby_system.L1Cache_Controller.M.L1_Replacement::total          555                       (Unspecified)
board.cache_hierarchy.ruby_system.L1Cache_Controller.M.Fwd_GETX |          41      0.12%      0.12% |        2002      6.09%      6.21% |        2061      6.27%     12.48% |        2061      6.27%     18.74% |        2061      6.27%     25.01% |        2061      6.27%     31.27% |        2061      6.27%     37.54% |        2061      6.27%     43.80% |        2061      6.27%     50.07% |        2061      6.27%     56.33% |        2061      6.27%     62.60% |        2053      6.24%     68.84% |        2061      6.27%     75.10% |        2051      6.23%     81.34% |        2050      6.23%     87.57% |        2050      6.23%     93.80% |        2039      6.20%    100.00% (Unspecified)
board.cache_hierarchy.ruby_system.L1Cache_Controller.M.Fwd_GETX::total        32896                       (Unspecified)
board.cache_hierarchy.ruby_system.L1Cache_Controller.M.Fwd_GETS |         407     73.07%     73.07% |          12      2.15%     75.22% |          10      1.80%     77.02% |          10      1.80%     78.82% |          10      1.80%     80.61% |          10      1.80%     82.41% |          10      1.80%     84.20% |          10      1.80%     86.00% |          10      1.80%     87.79% |          10      1.80%     89.59% |          11      1.97%     91.56% |           5      0.90%     92.46% |          11      1.97%     94.43% |           9      1.62%     96.05% |           8      1.44%     97.49% |           7      1.26%     98.74% |           7      1.26%    100.00% (Unspecified)
board.cache_hierarchy.ruby_system.L1Cache_Controller.M.Fwd_GETS::total          557                       (Unspecified)
board.cache_hierarchy.ruby_system.L1Cache_Controller.IS.Data_Exclusive |          84      3.98%      3.98% |        1809     85.69%     89.67% |          16      0.76%     90.43% |          13      0.62%     91.05% |          14      0.66%     91.71% |          14      0.66%     92.37% |          14      0.66%     93.04% |          14      0.66%     93.70% |          14      0.66%     94.36% |          15      0.71%     95.07% |          15      0.71%     95.78% |          14      0.66%     96.45% |          14      0.66%     97.11% |          15      0.71%     97.82% |          15      0.71%     98.53% |          16      0.76%     99.29% |          15      0.71%    100.00% (Unspecified)
board.cache_hierarchy.ruby_system.L1Cache_Controller.IS.Data_Exclusive::total         2111                       (Unspecified)
board.cache_hierarchy.ruby_system.L1Cache_Controller.IS.DataS_fromL1 |          47      1.97%      1.97% |         279     11.72%     13.70% |        1815     76.26%     89.96% |          21      0.88%     90.84% |          18      0.76%     91.60% |          19      0.80%     92.39% |          16      0.67%     93.07% |          16      0.67%     93.74% |          16      0.67%     94.41% |          17      0.71%     95.13% |          17      0.71%     95.84% |          18      0.76%     96.60% |          16      0.67%     97.27% |          16      0.67%     97.94% |          16      0.67%     98.61% |          17      0.71%     99.33% |          16      0.67%    100.00% (Unspecified)
board.cache_hierarchy.ruby_system.L1Cache_Controller.IS.DataS_fromL1::total         2380                       (Unspecified)
board.cache_hierarchy.ruby_system.L1Cache_Controller.IS.Data_all_Acks |         366      1.13%      1.13% |         190      0.59%      1.72% |         434      1.34%      3.06% |        2235      6.91%      9.97% |        2231      6.90%     16.86% |        2231      6.90%     23.76% |        2241      6.93%     30.69% |        2237      6.91%     37.60% |        2234      6.91%     44.51% |        2232      6.90%     51.40% |        2233      6.90%     58.31% |        2256      6.97%     65.28% |        2232      6.90%     72.18% |        2254      6.97%     79.15% |        2258      6.98%     86.12% |        2234      6.91%     93.03% |        2255      6.97%    100.00% (Unspecified)
board.cache_hierarchy.ruby_system.L1Cache_Controller.IS.Data_all_Acks::total        32353                       (Unspecified)
board.cache_hierarchy.ruby_system.L1Cache_Controller.IM.Data |           2     50.00%     50.00% |           0      0.00%     50.00% |           0      0.00%     50.00% |           0      0.00%     50.00% |           0      0.00%     50.00% |           0      0.00%     50.00% |           0      0.00%     50.00% |           0      0.00%     50.00% |           0      0.00%     50.00% |           0      0.00%     50.00% |           0      0.00%     50.00% |           1     25.00%     75.00% |           0      0.00%     75.00% |           1     25.00%    100.00% |           0      0.00%    100.00% |           0      0.00%    100.00% |           0      0.00%    100.00% (Unspecified)
board.cache_hierarchy.ruby_system.L1Cache_Controller.IM.Data::total            4                       (Unspecified)
board.cache_hierarchy.ruby_system.L1Cache_Controller.IM.Data_all_Acks |         396      1.18%      1.18% |        2049      6.08%      7.26% |        2075      6.16%     13.41% |        2076      6.16%     19.57% |        2075      6.16%     25.73% |        2075      6.16%     31.89% |        2075      6.16%     38.05% |        2076      6.16%     44.21% |        2075      6.16%     50.36% |        2074      6.15%     56.52% |        2075      6.16%     62.68% |        2108      6.26%     68.93% |        2076      6.16%     75.09% |        2109      6.26%     81.35% |        2109      6.26%     87.61% |        2077      6.16%     93.77% |        2099      6.23%    100.00% (Unspecified)
board.cache_hierarchy.ruby_system.L1Cache_Controller.IM.Data_all_Acks::total        33699                       (Unspecified)
board.cache_hierarchy.ruby_system.L1Cache_Controller.SM.Ack |          34     13.18%     13.18% |          10      3.88%     17.05% |          13      5.04%     22.09% |          12      4.65%     26.74% |          13      5.04%     31.78% |          13      5.04%     36.82% |          14      5.43%     42.25% |          13      5.04%     47.29% |          14      5.43%     52.71% |          14      5.43%     58.14% |          14      5.43%     63.57% |          27     10.47%     74.03% |          15      5.81%     79.84% |          16      6.20%     86.05% |          12      4.65%     90.70% |          11      4.26%     94.96% |          13      5.04%    100.00% (Unspecified)
board.cache_hierarchy.ruby_system.L1Cache_Controller.SM.Ack::total          258                       (Unspecified)
board.cache_hierarchy.ruby_system.L1Cache_Controller.SM.Ack_all |          29     13.24%     13.24% |          10      4.57%     17.81% |          12      5.48%     23.29% |          12      5.48%     28.77% |          13      5.94%     34.70% |          13      5.94%     40.64% |          13      5.94%     46.58% |          12      5.48%     52.05% |          13      5.94%     57.99% |          13      5.94%     63.93% |          13      5.94%     69.86% |          12      5.48%     75.34% |          12      5.48%     80.82% |          12      5.48%     86.30% |           9      4.11%     90.41% |          11      5.02%     95.43% |          10      4.57%    100.00% (Unspecified)
board.cache_hierarchy.ruby_system.L1Cache_Controller.SM.Ack_all::total          219                       (Unspecified)
board.cache_hierarchy.ruby_system.L1Cache_Controller.M_I.WB_Ack |         359     61.58%     61.58% |          13      2.23%     63.81% |          14      2.40%     66.21% |          14      2.40%     68.61% |          14      2.40%     71.01% |          15      2.57%     73.58% |          14      2.40%     75.99% |          14      2.40%     78.39% |          14      2.40%     80.79% |          14      2.40%     83.19% |          14      2.40%     85.59% |          14      2.40%     87.99% |          14      2.40%     90.39% |          14      2.40%     92.80% |          14      2.40%     95.20% |          14      2.40%     97.60% |          14      2.40%    100.00% (Unspecified)
board.cache_hierarchy.ruby_system.L1Cache_Controller.M_I.WB_Ack::total          583                       (Unspecified)
board.cache_hierarchy.ruby_system.L2Cache_Controller.L1_GET_INSTR |         199      6.33%      6.33% |         128      4.07%     10.40% |         138      4.39%     14.79% |         168      5.34%     20.13% |         192      6.11%     26.24% |         228      7.25%     33.49% |         249      7.92%     41.41% |         190      6.04%     47.46% |         198      6.30%     53.75% |         206      6.55%     60.31% |         186      5.92%     66.22% |         199      6.33%     72.55% |         206      6.55%     79.10% |         199      6.33%     85.43% |         228      7.25%     92.68% |         230      7.32%    100.00% (Unspecified)
board.cache_hierarchy.ruby_system.L2Cache_Controller.L1_GET_INSTR::total         3144                       (Unspecified)
board.cache_hierarchy.ruby_system.L2Cache_Controller.L1_GETS |        2068      6.14%      6.14% |        2160      6.41%     12.55% |        2131      6.32%     18.87% |        2138      6.34%     25.21% |        2121      6.29%     31.51% |        2121      6.29%     37.80% |        2115      6.28%     44.08% |        2079      6.17%     50.24% |        2088      6.20%     56.44% |        2124      6.30%     62.74% |        2114      6.27%     69.02% |        2052      6.09%     75.10% |        2092      6.21%     81.31% |        2084      6.18%     87.50% |        2112      6.27%     93.76% |        2102      6.24%    100.00% (Unspecified)
board.cache_hierarchy.ruby_system.L2Cache_Controller.L1_GETS::total        33701                       (Unspecified)
board.cache_hierarchy.ruby_system.L2Cache_Controller.L1_GETX |          49      0.01%      0.01% |          55      0.01%      0.03% |          54      0.01%      0.04% |          55      0.01%      0.05% |          93      0.02%      0.08% |         115      0.03%      0.11% |          77      0.02%      0.13% |          82      0.02%      0.15% |          82      0.02%      0.17% |          49      0.01%      0.18% |          54      0.01%      0.19% |          34      0.01%      0.20% |          66      0.02%      0.22% |          64      0.02%      0.24% |          43      0.01%      0.25% |      393244     99.75%    100.00% (Unspecified)
board.cache_hierarchy.ruby_system.L2Cache_Controller.L1_GETX::total       394216                       (Unspecified)
board.cache_hierarchy.ruby_system.L2Cache_Controller.L1_UPGRADE |           2      0.92%      0.92% |          52     23.85%     24.77% |          26     11.93%     36.70% |          12      5.50%     42.20% |          13      5.96%     48.17% |          32     14.68%     62.84% |          10      4.59%     67.43% |           5      2.29%     69.72% |           0      0.00%     69.72% |           2      0.92%     70.64% |          25     11.47%     82.11% |           0      0.00%     82.11% |          18      8.26%     90.37% |           2      0.92%     91.28% |          17      7.80%     99.08% |           2      0.92%    100.00% (Unspecified)
board.cache_hierarchy.ruby_system.L2Cache_Controller.L1_UPGRADE::total          218                       (Unspecified)
board.cache_hierarchy.ruby_system.L2Cache_Controller.L1_PUTX |          23      3.95%      3.95% |          48      8.23%     12.18% |          31      5.32%     17.50% |          48      8.23%     25.73% |          62     10.63%     36.36% |          67     11.49%     47.86% |          46      7.89%     55.75% |          47      8.06%     63.81% |          51      8.75%     72.56% |          30      5.15%     77.70% |          29      4.97%     82.68% |          11      1.89%     84.56% |          29      4.97%     89.54% |          38      6.52%     96.05% |          13      2.23%     98.28% |          10      1.72%    100.00% (Unspecified)
board.cache_hierarchy.ruby_system.L2Cache_Controller.L1_PUTX::total          583                       (Unspecified)
board.cache_hierarchy.ruby_system.L2Cache_Controller.Mem_Data |          63      5.31%      5.31% |          73      6.16%     11.47% |          79      6.66%     18.13% |          81      6.83%     24.96% |          97      8.18%     33.14% |          98      8.26%     41.40% |          82      6.91%     48.31% |          77      6.49%     54.81% |          74      6.24%     61.05% |          75      6.32%     67.37% |          58      4.89%     72.26% |          44      3.71%     75.97% |          65      5.48%     81.45% |          76      6.41%     87.86% |          71      5.99%     93.84% |          73      6.16%    100.00% (Unspecified)
board.cache_hierarchy.ruby_system.L2Cache_Controller.Mem_Data::total         1186                       (Unspecified)
board.cache_hierarchy.ruby_system.L2Cache_Controller.WB_Data |          24      4.31%      4.31% |          84     15.08%     19.39% |          60     10.77%     30.16% |          29      5.21%     35.37% |          32      5.75%     41.11% |          57     10.23%     51.35% |          25      4.49%     55.83% |          21      3.77%     59.61% |          19      3.41%     63.02% |          38      6.82%     69.84% |          41      7.36%     77.20% |          18      3.23%     80.43% |          34      6.10%     86.54% |          20      3.59%     90.13% |          33      5.92%     96.05% |          22      3.95%    100.00% (Unspecified)
board.cache_hierarchy.ruby_system.L2Cache_Controller.WB_Data::total          557                       (Unspecified)
board.cache_hierarchy.ruby_system.L2Cache_Controller.WB_Data_clean |         108      5.92%      5.92% |         111      6.09%     12.01% |         113      6.20%     18.21% |         129      7.08%     25.29% |         113      6.20%     31.49% |         119      6.53%     38.01% |         116      6.36%     44.38% |         112      6.14%     50.52% |         113      6.20%     56.72% |         111      6.09%     62.81% |         114      6.25%     69.06% |         110      6.03%     75.10% |         114      6.25%     81.35% |         115      6.31%     87.66% |         115      6.31%     93.97% |         110      6.03%    100.00% (Unspecified)
board.cache_hierarchy.ruby_system.L2Cache_Controller.WB_Data_clean::total         1823                       (Unspecified)
board.cache_hierarchy.ruby_system.L2Cache_Controller.Unblock |         132      5.55%      5.55% |         195      8.19%     13.74% |         173      7.27%     21.01% |         158      6.64%     27.65% |         145      6.09%     33.74% |         176      7.39%     41.13% |         141      5.92%     47.06% |         133      5.59%     52.65% |         132      5.55%     58.19% |         149      6.26%     64.45% |         155      6.51%     70.97% |         128      5.38%     76.34% |         148      6.22%     82.56% |         135      5.67%     88.24% |         148      6.22%     94.45% |         132      5.55%    100.00% (Unspecified)
board.cache_hierarchy.ruby_system.L2Cache_Controller.Unblock::total         2380                       (Unspecified)
board.cache_hierarchy.ruby_system.L2Cache_Controller.Exclusive_Unblock |         176      0.49%      0.49% |         253      0.70%      1.19% |         212      0.59%      1.78% |         214      0.59%      2.37% |         257      0.71%      3.09% |         289      0.80%      3.89% |         225      0.62%      4.51% |         220      0.61%      5.12% |         220      0.61%      5.73% |         181      0.50%      6.24% |         196      0.54%      6.78% |         148      0.41%      7.19% |         203      0.56%      7.75% |         190      0.53%      8.28% |         183      0.51%      8.79% |       32862     91.21%    100.00% (Unspecified)
board.cache_hierarchy.ruby_system.L2Cache_Controller.Exclusive_Unblock::total        36029                       (Unspecified)
board.cache_hierarchy.ruby_system.L2Cache_Controller.NP.L1_GET_INSTR |          25      6.58%      6.58% |          23      6.05%     12.63% |          26      6.84%     19.47% |          28      7.37%     26.84% |          27      7.11%     33.95% |          27      7.11%     41.05% |          26      6.84%     47.89% |          23      6.05%     53.95% |          19      5.00%     58.95% |          20      5.26%     64.21% |          19      5.00%     69.21% |          22      5.79%     75.00% |          26      6.84%     81.84% |          22      5.79%     87.63% |          23      6.05%     93.68% |          24      6.32%    100.00% (Unspecified)
board.cache_hierarchy.ruby_system.L2Cache_Controller.NP.L1_GET_INSTR::total          380                       (Unspecified)
board.cache_hierarchy.ruby_system.L2Cache_Controller.NP.L1_GETS |           0      0.00%      0.00% |           2      2.99%      2.99% |           0      0.00%      2.99% |           0      0.00%      2.99% |          16     23.88%     26.87% |           1      1.49%     28.36% |           2      2.99%     31.34% |           1      1.49%     32.84% |           1      1.49%     34.33% |          17     25.37%     59.70% |           2      2.99%     62.69% |           0      0.00%     62.69% |           1      1.49%     64.18% |           1      1.49%     65.67% |           6      8.96%     74.63% |          17     25.37%    100.00% (Unspecified)
board.cache_hierarchy.ruby_system.L2Cache_Controller.NP.L1_GETS::total           67                       (Unspecified)
board.cache_hierarchy.ruby_system.L2Cache_Controller.NP.L1_GETX |          38      5.14%      5.14% |          48      6.50%     11.64% |          53      7.17%     18.81% |          53      7.17%     25.98% |          54      7.31%     33.29% |          70      9.47%     42.76% |          54      7.31%     50.07% |          53      7.17%     57.24% |          54      7.31%     64.55% |          38      5.14%     69.69% |          37      5.01%     74.70% |          22      2.98%     77.67% |          38      5.14%     82.81% |          53      7.17%     89.99% |          42      5.68%     95.67% |          32      4.33%    100.00% (Unspecified)
board.cache_hierarchy.ruby_system.L2Cache_Controller.NP.L1_GETX::total          739                       (Unspecified)
board.cache_hierarchy.ruby_system.L2Cache_Controller.SS.L1_GET_INSTR |         174      6.30%      6.30% |         105      3.80%     10.10% |         112      4.06%     14.16% |         140      5.07%     19.23% |         165      5.97%     25.20% |         201      7.28%     32.48% |         222      8.04%     40.51% |         167      6.05%     46.56% |         179      6.48%     53.04% |         185      6.70%     59.74% |         167      6.05%     65.79% |         177      6.41%     72.19% |         180      6.52%     78.71% |         177      6.41%     85.12% |         205      7.42%     92.54% |         206      7.46%    100.00% (Unspecified)
board.cache_hierarchy.ruby_system.L2Cache_Controller.SS.L1_GET_INSTR::total         2762                       (Unspecified)
board.cache_hierarchy.ruby_system.L2Cache_Controller.SS.L1_GETS |        1811      6.20%      6.20% |        1818      6.22%     12.42% |        1826      6.25%     18.68% |        1833      6.28%     24.95% |        1825      6.25%     31.20% |        1803      6.17%     37.37% |        1836      6.29%     43.66% |        1813      6.21%     49.86% |        1818      6.22%     56.09% |        1845      6.32%     62.41% |        1840      6.30%     68.70% |        1810      6.20%     74.90% |        1824      6.24%     81.15% |        1825      6.25%     87.39% |        1841      6.30%     93.70% |        1841      6.30%    100.00% (Unspecified)
board.cache_hierarchy.ruby_system.L2Cache_Controller.SS.L1_GETS::total        29209                       (Unspecified)
board.cache_hierarchy.ruby_system.L2Cache_Controller.SS.L1_GETX |           0      0.00%      0.00% |           0      0.00%      0.00% |           0      0.00%      0.00% |           0      0.00%      0.00% |           2     50.00%     50.00% |           0      0.00%     50.00% |           0      0.00%     50.00% |           0      0.00%     50.00% |           0      0.00%     50.00% |           0      0.00%     50.00% |           2     50.00%    100.00% |           0      0.00%    100.00% |           0      0.00%    100.00% |           0      0.00%    100.00% |           0      0.00%    100.00% |           0      0.00%    100.00% (Unspecified)
board.cache_hierarchy.ruby_system.L2Cache_Controller.SS.L1_GETX::total            4                       (Unspecified)
board.cache_hierarchy.ruby_system.L2Cache_Controller.SS.L1_UPGRADE |           2      0.93%      0.93% |          52     24.19%     25.12% |          26     12.09%     37.21% |          12      5.58%     42.79% |          13      6.05%     48.84% |          32     14.88%     63.72% |          10      4.65%     68.37% |           5      2.33%     70.70% |           0      0.00%     70.70% |           2      0.93%     71.63% |          23     10.70%     82.33% |           0      0.00%     82.33% |          17      7.91%     90.23% |           2      0.93%     91.16% |          17      7.91%     99.07% |           2      0.93%    100.00% (Unspecified)
board.cache_hierarchy.ruby_system.L2Cache_Controller.SS.L1_UPGRADE::total          215                       (Unspecified)
board.cache_hierarchy.ruby_system.L2Cache_Controller.M.L1_GETS |         125      6.12%      6.12% |         144      7.05%     13.16% |         132      6.46%     19.62% |         147      7.19%     26.81% |         135      6.60%     33.41% |         141      6.90%     40.31% |         136      6.65%     46.97% |         132      6.46%     53.42% |         137      6.70%     60.13% |         113      5.53%     65.66% |         117      5.72%     71.38% |         114      5.58%     76.96% |         119      5.82%     82.78% |         123      6.02%     88.80% |         117      5.72%     94.52% |         112      5.48%    100.00% (Unspecified)
board.cache_hierarchy.ruby_system.L2Cache_Controller.M.L1_GETS::total         2044                       (Unspecified)
board.cache_hierarchy.ruby_system.L2Cache_Controller.M.L1_GETX |           0      0.00%      0.00% |           1      1.56%      1.56% |           1      1.56%      3.12% |           2      3.12%      6.25% |          20     31.25%     37.50% |          18     28.12%     65.62% |           1      1.56%     67.19% |           2      3.12%     70.31% |           1      1.56%     71.88% |           0      0.00%     71.88% |           1      1.56%     73.44% |           1      1.56%     75.00% |          14     21.88%     96.88% |           0      0.00%     96.88% |           1      1.56%     98.44% |           1      1.56%    100.00% (Unspecified)
board.cache_hierarchy.ruby_system.L2Cache_Controller.M.L1_GETX::total           64                       (Unspecified)
board.cache_hierarchy.ruby_system.L2Cache_Controller.MT.L1_GETS |         132      5.55%      5.55% |         195      8.19%     13.74% |         173      7.27%     21.01% |         158      6.64%     27.65% |         145      6.09%     33.74% |         176      7.39%     41.13% |         141      5.92%     47.06% |         133      5.59%     52.65% |         132      5.55%     58.19% |         149      6.26%     64.45% |         155      6.51%     70.97% |         128      5.38%     76.34% |         148      6.22%     82.56% |         135      5.67%     88.24% |         148      6.22%     94.45% |         132      5.55%    100.00% (Unspecified)
board.cache_hierarchy.ruby_system.L2Cache_Controller.MT.L1_GETS::total         2380                       (Unspecified)
board.cache_hierarchy.ruby_system.L2Cache_Controller.MT.L1_GETX |          11      0.03%      0.03% |           6      0.02%      0.05% |           0      0.00%      0.05% |           0      0.00%      0.05% |          17      0.05%      0.10% |          27      0.08%      0.19% |          22      0.07%      0.25% |          27      0.08%      0.33% |          27      0.08%      0.42% |          11      0.03%      0.45% |          14      0.04%      0.49% |          11      0.03%      0.53% |          14      0.04%      0.57% |          11      0.03%      0.60% |           0      0.00%      0.60% |       32698     99.40%    100.00% (Unspecified)
board.cache_hierarchy.ruby_system.L2Cache_Controller.MT.L1_GETX::total        32896                       (Unspecified)
board.cache_hierarchy.ruby_system.L2Cache_Controller.MT.L1_PUTX |          23      3.95%      3.95% |          48      8.23%     12.18% |          31      5.32%     17.50% |          48      8.23%     25.73% |          62     10.63%     36.36% |          67     11.49%     47.86% |          46      7.89%     55.75% |          47      8.06%     63.81% |          51      8.75%     72.56% |          30      5.15%     77.70% |          29      4.97%     82.68% |          11      1.89%     84.56% |          29      4.97%     89.54% |          38      6.52%     96.05% |          13      2.23%     98.28% |          10      1.72%    100.00% (Unspecified)
board.cache_hierarchy.ruby_system.L2Cache_Controller.MT.L1_PUTX::total          583                       (Unspecified)
board.cache_hierarchy.ruby_system.L2Cache_Controller.ISS.Mem_Data |           0      0.00%      0.00% |           2      2.99%      2.99% |           0      0.00%      2.99% |           0      0.00%      2.99% |          16     23.88%     26.87% |           1      1.49%     28.36% |           2      2.99%     31.34% |           1      1.49%     32.84% |           1      1.49%     34.33% |          17     25.37%     59.70% |           2      2.99%     62.69% |           0      0.00%     62.69% |           1      1.49%     64.18% |           1      1.49%     65.67% |           6      8.96%     74.63% |          17     25.37%    100.00% (Unspecified)
board.cache_hierarchy.ruby_system.L2Cache_Controller.ISS.Mem_Data::total           67                       (Unspecified)
board.cache_hierarchy.ruby_system.L2Cache_Controller.IS.L1_GET_INSTR |           0      0.00%      0.00% |           0      0.00%      0.00% |           0      0.00%      0.00% |           0      0.00%      0.00% |           0      0.00%      0.00% |           0      0.00%      0.00% |           1     50.00%     50.00% |           0      0.00%     50.00% |           0      0.00%     50.00% |           1     50.00%    100.00% |           0      0.00%    100.00% |           0      0.00%    100.00% |           0      0.00%    100.00% |           0      0.00%    100.00% |           0      0.00%    100.00% |           0      0.00%    100.00% (Unspecified)
board.cache_hierarchy.ruby_system.L2Cache_Controller.IS.L1_GET_INSTR::total            2                       (Unspecified)
board.cache_hierarchy.ruby_system.L2Cache_Controller.IS.Mem_Data |          25      6.58%      6.58% |          23      6.05%     12.63% |          26      6.84%     19.47% |          28      7.37%     26.84% |          27      7.11%     33.95% |          27      7.11%     41.05% |          26      6.84%     47.89% |          23      6.05%     53.95% |          19      5.00%     58.95% |          20      5.26%     64.21% |          19      5.00%     69.21% |          22      5.79%     75.00% |          26      6.84%     81.84% |          22      5.79%     87.63% |          23      6.05%     93.68% |          24      6.32%    100.00% (Unspecified)
board.cache_hierarchy.ruby_system.L2Cache_Controller.IS.Mem_Data::total          380                       (Unspecified)
board.cache_hierarchy.ruby_system.L2Cache_Controller.IM.Mem_Data |          38      5.14%      5.14% |          48      6.50%     11.64% |          53      7.17%     18.81% |          53      7.17%     25.98% |          54      7.31%     33.29% |          70      9.47%     42.76% |          54      7.31%     50.07% |          53      7.17%     57.24% |          54      7.31%     64.55% |          38      5.14%     69.69% |          37      5.01%     74.70% |          22      2.98%     77.67% |          38      5.14%     82.81% |          53      7.17%     89.99% |          42      5.68%     95.67% |          32      4.33%    100.00% (Unspecified)
board.cache_hierarchy.ruby_system.L2Cache_Controller.IM.Mem_Data::total          739                       (Unspecified)
board.cache_hierarchy.ruby_system.L2Cache_Controller.SS_MB.Exclusive_Unblock |           2      0.91%      0.91% |          52     23.74%     24.66% |          26     11.87%     36.53% |          12      5.48%     42.01% |          15      6.85%     48.86% |          32     14.61%     63.47% |          10      4.57%     68.04% |           5      2.28%     70.32% |           0      0.00%     70.32% |           2      0.91%     71.23% |          25     11.42%     82.65% |           0      0.00%     82.65% |          17      7.76%     90.41% |           2      0.91%     91.32% |          17      7.76%     99.09% |           2      0.91%    100.00% (Unspecified)
board.cache_hierarchy.ruby_system.L2Cache_Controller.SS_MB.Exclusive_Unblock::total          219                       (Unspecified)
board.cache_hierarchy.ruby_system.L2Cache_Controller.MT_MB.L1_GETX |           0      0.00%      0.00% |           0      0.00%      0.00% |           0      0.00%      0.00% |           0      0.00%      0.00% |           0      0.00%      0.00% |           0      0.00%      0.00% |           0      0.00%      0.00% |           0      0.00%      0.00% |           0      0.00%      0.00% |           0      0.00%      0.00% |           0      0.00%      0.00% |           0      0.00%      0.00% |           0      0.00%      0.00% |           0      0.00%      0.00% |           0      0.00%      0.00% |      360513    100.00%    100.00% (Unspecified)
board.cache_hierarchy.ruby_system.L2Cache_Controller.MT_MB.L1_GETX::total       360513                       (Unspecified)
board.cache_hierarchy.ruby_system.L2Cache_Controller.MT_MB.Exclusive_Unblock |         174      0.49%      0.49% |         201      0.56%      1.05% |         186      0.52%      1.57% |         202      0.56%      2.13% |         242      0.68%      2.81% |         257      0.72%      3.52% |         215      0.60%      4.12% |         215      0.60%      4.72% |         220      0.61%      5.34% |         179      0.50%      5.84% |         171      0.48%      6.32% |         148      0.41%      6.73% |         186      0.52%      7.25% |         188      0.52%      7.77% |         166      0.46%      8.24% |       32860     91.76%    100.00% (Unspecified)
board.cache_hierarchy.ruby_system.L2Cache_Controller.MT_MB.Exclusive_Unblock::total        35810                       (Unspecified)
board.cache_hierarchy.ruby_system.L2Cache_Controller.MT_IIB.WB_Data |          24      4.53%      4.53% |          68     12.83%     17.36% |          60     11.32%     28.68% |          28      5.28%     33.96% |          31      5.85%     39.81% |          57     10.75%     50.57% |          24      4.53%     55.09% |          21      3.96%     59.06% |          19      3.58%     62.64% |          37      6.98%     69.62% |          34      6.42%     76.04% |          18      3.40%     79.43% |          34      6.42%     85.85% |          20      3.77%     89.62% |          33      6.23%     95.85% |          22      4.15%    100.00% (Unspecified)
board.cache_hierarchy.ruby_system.L2Cache_Controller.MT_IIB.WB_Data::total          530                       (Unspecified)
board.cache_hierarchy.ruby_system.L2Cache_Controller.MT_IIB.WB_Data_clean |         108      5.98%      5.98% |         110      6.09%     12.07% |         113      6.26%     18.33% |         114      6.31%     24.64% |         113      6.26%     30.90% |         119      6.59%     37.49% |         116      6.42%     43.91% |         112      6.20%     50.11% |         112      6.20%     56.31% |         111      6.15%     62.46% |         114      6.31%     68.77% |         110      6.09%     74.86% |         114      6.31%     81.17% |         115      6.37%     87.54% |         115      6.37%     93.91% |         110      6.09%    100.00% (Unspecified)
board.cache_hierarchy.ruby_system.L2Cache_Controller.MT_IIB.WB_Data_clean::total         1806                       (Unspecified)
board.cache_hierarchy.ruby_system.L2Cache_Controller.MT_IIB.Unblock |           0      0.00%      0.00% |          17     38.64%     38.64% |           0      0.00%     38.64% |          16     36.36%     75.00% |           1      2.27%     77.27% |           0      0.00%     77.27% |           1      2.27%     79.55% |           0      0.00%     79.55% |           1      2.27%     81.82% |           1      2.27%     84.09% |           7     15.91%    100.00% |           0      0.00%    100.00% |           0      0.00%    100.00% |           0      0.00%    100.00% |           0      0.00%    100.00% |           0      0.00%    100.00% (Unspecified)
board.cache_hierarchy.ruby_system.L2Cache_Controller.MT_IIB.Unblock::total           44                       (Unspecified)
board.cache_hierarchy.ruby_system.L2Cache_Controller.MT_IB.WB_Data |           0      0.00%      0.00% |          16     59.26%     59.26% |           0      0.00%     59.26% |           1      3.70%     62.96% |           1      3.70%     66.67% |           0      0.00%     66.67% |           1      3.70%     70.37% |           0      0.00%     70.37% |           0      0.00%     70.37% |           1      3.70%     74.07% |           7     25.93%    100.00% |           0      0.00%    100.00% |           0      0.00%    100.00% |           0      0.00%    100.00% |           0      0.00%    100.00% |           0      0.00%    100.00% (Unspecified)
board.cache_hierarchy.ruby_system.L2Cache_Controller.MT_IB.WB_Data::total           27                       (Unspecified)
board.cache_hierarchy.ruby_system.L2Cache_Controller.MT_IB.WB_Data_clean |           0      0.00%      0.00% |           1      5.88%      5.88% |           0      0.00%      5.88% |          15     88.24%     94.12% |           0      0.00%     94.12% |           0      0.00%     94.12% |           0      0.00%     94.12% |           0      0.00%     94.12% |           1      5.88%    100.00% |           0      0.00%    100.00% |           0      0.00%    100.00% |           0      0.00%    100.00% |           0      0.00%    100.00% |           0      0.00%    100.00% |           0      0.00%    100.00% |           0      0.00%    100.00% (Unspecified)
board.cache_hierarchy.ruby_system.L2Cache_Controller.MT_IB.WB_Data_clean::total           17                       (Unspecified)
board.cache_hierarchy.ruby_system.L2Cache_Controller.MT_SB.L1_GETS |           0      0.00%      0.00% |           1    100.00%    100.00% |           0      0.00%    100.00% |           0      0.00%    100.00% |           0      0.00%    100.00% |           0      0.00%    100.00% |           0      0.00%    100.00% |           0      0.00%    100.00% |           0      0.00%    100.00% |           0      0.00%    100.00% |           0      0.00%    100.00% |           0      0.00%    100.00% |           0      0.00%    100.00% |           0      0.00%    100.00% |           0      0.00%    100.00% |           0      0.00%    100.00% (Unspecified)
board.cache_hierarchy.ruby_system.L2Cache_Controller.MT_SB.L1_GETS::total            1                       (Unspecified)
board.cache_hierarchy.ruby_system.L2Cache_Controller.MT_SB.L1_UPGRADE |           0      0.00%      0.00% |           0      0.00%      0.00% |           0      0.00%      0.00% |           0      0.00%      0.00% |           0      0.00%      0.00% |           0      0.00%      0.00% |           0      0.00%      0.00% |           0      0.00%      0.00% |           0      0.00%      0.00% |           0      0.00%      0.00% |           2     66.67%     66.67% |           0      0.00%     66.67% |           1     33.33%    100.00% |           0      0.00%    100.00% |           0      0.00%    100.00% |           0      0.00%    100.00% (Unspecified)
board.cache_hierarchy.ruby_system.L2Cache_Controller.MT_SB.L1_UPGRADE::total            3                       (Unspecified)
board.cache_hierarchy.ruby_system.L2Cache_Controller.MT_SB.Unblock |         132      5.65%      5.65% |         178      7.62%     13.27% |         173      7.41%     20.68% |         142      6.08%     26.76% |         144      6.16%     32.92% |         176      7.53%     40.45% |         140      5.99%     46.45% |         133      5.69%     52.14% |         131      5.61%     57.75% |         148      6.34%     64.08% |         148      6.34%     70.42% |         128      5.48%     75.90% |         148      6.34%     82.23% |         135      5.78%     88.01% |         148      6.34%     94.35% |         132      5.65%    100.00% (Unspecified)
board.cache_hierarchy.ruby_system.L2Cache_Controller.MT_SB.Unblock::total         2336                       (Unspecified)
board.cache_hierarchy.ruby_system.RequestType.LD.latency_hist_seqr::bucket_size          128                       (Unspecified)
board.cache_hierarchy.ruby_system.RequestType.LD.latency_hist_seqr::max_bucket         1279                       (Unspecified)
board.cache_hierarchy.ruby_system.RequestType.LD.latency_hist_seqr::samples       251342                       (Unspecified)
board.cache_hierarchy.ruby_system.RequestType.LD.latency_hist_seqr::mean     3.757168                       (Unspecified)
board.cache_hierarchy.ruby_system.RequestType.LD.latency_hist_seqr::gmean     1.505494                       (Unspecified)
board.cache_hierarchy.ruby_system.RequestType.LD.latency_hist_seqr::stdev     7.667311                       (Unspecified)
board.cache_hierarchy.ruby_system.RequestType.LD.latency_hist_seqr |      251314     99.99%     99.99% |          26      0.01%    100.00% |           0      0.00%    100.00% |           0      0.00%    100.00% |           0      0.00%    100.00% |           0      0.00%    100.00% |           2      0.00%    100.00% |           0      0.00%    100.00% |           0      0.00%    100.00% |           0      0.00%    100.00% (Unspecified)
board.cache_hierarchy.ruby_system.RequestType.LD.latency_hist_seqr::total       251342                       (Unspecified)
board.cache_hierarchy.ruby_system.RequestType.LD.hit_latency_hist_seqr::bucket_size            1                       (Unspecified)
board.cache_hierarchy.ruby_system.RequestType.LD.hit_latency_hist_seqr::max_bucket            9                       (Unspecified)
board.cache_hierarchy.ruby_system.RequestType.LD.hit_latency_hist_seqr::samples       217642                       (Unspecified)
board.cache_hierarchy.ruby_system.RequestType.LD.hit_latency_hist_seqr::mean     1.000014                       (Unspecified)
board.cache_hierarchy.ruby_system.RequestType.LD.hit_latency_hist_seqr::gmean     1.000010                       (Unspecified)
board.cache_hierarchy.ruby_system.RequestType.LD.hit_latency_hist_seqr::stdev     0.003713                       (Unspecified)
board.cache_hierarchy.ruby_system.RequestType.LD.hit_latency_hist_seqr |           0      0.00%      0.00% |      217639    100.00%    100.00% |           3      0.00%    100.00% |           0      0.00%    100.00% |           0      0.00%    100.00% |           0      0.00%    100.00% |           0      0.00%    100.00% |           0      0.00%    100.00% |           0      0.00%    100.00% |           0      0.00%    100.00% (Unspecified)
board.cache_hierarchy.ruby_system.RequestType.LD.hit_latency_hist_seqr::total       217642                       (Unspecified)
board.cache_hierarchy.ruby_system.RequestType.LD.miss_latency_hist_seqr::bucket_size          128                       (Unspecified)
board.cache_hierarchy.ruby_system.RequestType.LD.miss_latency_hist_seqr::max_bucket         1279                       (Unspecified)
board.cache_hierarchy.ruby_system.RequestType.LD.miss_latency_hist_seqr::samples        33700                       (Unspecified)
board.cache_hierarchy.ruby_system.RequestType.LD.miss_latency_hist_seqr::mean    21.563472                       (Unspecified)
board.cache_hierarchy.ruby_system.RequestType.LD.miss_latency_hist_seqr::gmean    21.141866                       (Unspecified)
board.cache_hierarchy.ruby_system.RequestType.LD.miss_latency_hist_seqr::stdev     8.502493                       (Unspecified)
board.cache_hierarchy.ruby_system.RequestType.LD.miss_latency_hist_seqr |       33672     99.92%     99.92% |          26      0.08%     99.99% |           0      0.00%     99.99% |           0      0.00%     99.99% |           0      0.00%     99.99% |           0      0.00%     99.99% |           2      0.01%    100.00% |           0      0.00%    100.00% |           0      0.00%    100.00% |           0      0.00%    100.00% (Unspecified)
board.cache_hierarchy.ruby_system.RequestType.LD.miss_latency_hist_seqr::total        33700                       (Unspecified)
board.cache_hierarchy.ruby_system.RequestType.ST.latency_hist_seqr::bucket_size          128                       (Unspecified)
board.cache_hierarchy.ruby_system.RequestType.ST.latency_hist_seqr::max_bucket         1279                       (Unspecified)
board.cache_hierarchy.ruby_system.RequestType.ST.latency_hist_seqr::samples       192959                       (Unspecified)
[...]
board.processor.cores9.core.executeStats0.numMemRefs        60794                       # Number of memory refs (Count)
board.processor.cores9.core.executeStats0.numMiscRegReads        86722                       # Number of times the Misc registers were read (Count)
board.processor.cores9.core.executeStats0.numMiscRegWrites            1                       # Number of times the Misc registers were written (Count)
board.processor.cores9.core.executeStats0.numVecAluAccesses            0                       # Number of vector alu accesses (Count)
board.processor.cores9.core.executeStats0.numDiscardedOps            0                       # Number of ops (including micro ops) which were discarded before commit (Count)
board.processor.cores9.core.fetch.predictedBranches        23088                       # Number of branches that fetch has predicted taken (Count)
board.processor.cores9.core.fetch.cycles       878415                       # Number of cycles fetch has run and was not squashing or blocked (Cycle)
board.processor.cores9.core.fetch.squashCycles         4578                       # Number of cycles fetch has spent squashing (Cycle)
board.processor.cores9.core.fetch.miscStallCycles           33                       # Number of cycles fetch has spent waiting on interrupts, or bad addresses, or out of MSHRs (Cycle)
board.processor.cores9.core.fetch.pendingTrapStallCycles          203                       # Number of stall cycles due to pending traps (Cycle)
board.processor.cores9.core.fetch.cacheLines        39744                       # Number of cache lines fetched (Count)
board.processor.cores9.core.fetch.icacheSquashes           96                       # Number of outstanding Icache misses that were squashed (Count)
board.processor.cores9.core.fetch.nisnDist::samples       925229                       # Number of instructions fetched each cycle (Total) (Count)
board.processor.cores9.core.fetch.nisnDist::mean     0.398086                       # Number of instructions fetched each cycle (Total) (Count)
board.processor.cores9.core.fetch.nisnDist::stdev     1.599746                       # Number of instructions fetched each cycle (Total) (Count)
board.processor.cores9.core.fetch.nisnDist::underflows            0      0.00%      0.00% # Number of instructions fetched each cycle (Total) (Count)
board.processor.cores9.core.fetch.nisnDist::0       860219     92.97%     92.97% # Number of instructions fetched each cycle (Total) (Count)
board.processor.cores9.core.fetch.nisnDist::1         8257      0.89%     93.87% # Number of instructions fetched each cycle (Total) (Count)
board.processor.cores9.core.fetch.nisnDist::2         4138      0.45%     94.31% # Number of instructions fetched each cycle (Total) (Count)
board.processor.cores9.core.fetch.nisnDist::3           69      0.01%     94.32% # Number of instructions fetched each cycle (Total) (Count)
board.processor.cores9.core.fetch.nisnDist::4         8285      0.90%     95.22% # Number of instructions fetched each cycle (Total) (Count)
board.processor.cores9.core.fetch.nisnDist::5         8342      0.90%     96.12% # Number of instructions fetched each cycle (Total) (Count)
board.processor.cores9.core.fetch.nisnDist::6         4207      0.45%     96.57% # Number of instructions fetched each cycle (Total) (Count)
board.processor.cores9.core.fetch.nisnDist::7         2207      0.24%     96.81% # Number of instructions fetched each cycle (Total) (Count)
board.processor.cores9.core.fetch.nisnDist::8        29505      3.19%    100.00% # Number of instructions fetched each cycle (Total) (Count)
board.processor.cores9.core.fetch.nisnDist::overflows            0      0.00%    100.00% # Number of instructions fetched each cycle (Total) (Count)
board.processor.cores9.core.fetch.nisnDist::min_value            0                       # Number of instructions fetched each cycle (Total) (Count)
board.processor.cores9.core.fetch.nisnDist::max_value            8                       # Number of instructions fetched each cycle (Total) (Count)
board.processor.cores9.core.fetch.nisnDist::total       925229                       # Number of instructions fetched each cycle (Total) (Count)
board.processor.cores9.core.fetchStats0.numInsts       242442                       # Number of instructions fetched (thread level) (Count)
board.processor.cores9.core.fetchStats0.numOps            0                       # Number of ops (including micro ops) fetched (thread level) (Count)
board.processor.cores9.core.fetchStats0.fetchRate     0.261990                       # Number of inst fetches per cycle ((Count/Cycle))
board.processor.cores9.core.fetchStats0.numBranches        23678                       # Number of branches fetched (Count)
board.processor.cores9.core.fetchStats0.branchRate     0.025587                       # Number of branch fetches per cycle (Ratio)
board.processor.cores9.core.fetchStats0.icacheStallCycles        44289                       # ICache total stall cycles (Cycle)
board.processor.cores9.core.fetchStats0.numFetchSuspends            0                       # Number of times Execute suspended instruction fetching (Count)
board.processor.cores9.core.iew.idleCycles            0                       # Number of cycles IEW is idle (Cycle)
board.processor.cores9.core.iew.squashCycles         2176                       # Number of cycles IEW is squashing (Cycle)
board.processor.cores9.core.iew.blockCycles       796953                       # Number of cycles IEW is blocking (Cycle)
board.processor.cores9.core.iew.unblockCycles         4123                       # Number of cycles IEW is unblocking (Cycle)
board.processor.cores9.core.iew.dispatchedInsts       284035                       # Number of instructions dispatched to IQ (Count)
board.processor.cores9.core.iew.dispSquashedInsts           24                       # Number of squashed instructions skipped by dispatch (Count)
board.processor.cores9.core.iew.dispLoadInsts        74769                       # Number of dispatched load instructions (Count)
board.processor.cores9.core.iew.dispStoreInsts        35544                       # Number of dispatched store instructions (Count)
board.processor.cores9.core.iew.dispNonSpecInsts         6177                       # Number of dispatched non-speculative instructions (Count)
board.processor.cores9.core.iew.iqFullEvents           24                       # Number of times the IQ has become full, causing a stall (Count)
board.processor.cores9.core.iew.lsqFullEvents            1                       # Number of times the LSQ has become full, causing a stall (Count)
board.processor.cores9.core.iew.memOrderViolationEvents         4103                       # Number of memory order violations (Count)
board.processor.cores9.core.iew.predictedTakenIncorrect            7                       # Number of branches that were predicted taken incorrectly (Count)
board.processor.cores9.core.iew.predictedNotTakenIncorrect          118                       # Number of branches that were predicted not taken incorrectly (Count)
board.processor.cores9.core.iew.branchMispredicts          125                       # Number of branch mispredicts detected at execute (Count)
board.processor.cores9.core.iew.instsToCommit       180271                       # Cumulative count of insts sent to commit (Count)
board.processor.cores9.core.iew.writebackCount       180161                       # Cumulative count of insts written-back (Count)
board.processor.cores9.core.iew.producerInst       118721                       # Number of instructions producing a value (Count)
board.processor.cores9.core.iew.consumerInst       221331                       # Number of instructions consuming a value (Count)
board.processor.cores9.core.iew.wbRate       0.194687                       # Insts written-back per cycle ((Count/Cycle))
board.processor.cores9.core.iew.wbFanout     0.536396                       # Average fanout of values written-back ((Count/Count))
board.processor.cores9.core.interrupts.clk_domain.clock         8000                       # Clock period in ticks (Tick)
board.processor.cores9.core.lsq0.forwLoads         4289                       # Number of loads that had data forwarded from stores (Count)
board.processor.cores9.core.lsq0.squashedLoads        47579                       # Number of loads squashed (Count)
board.processor.cores9.core.lsq0.ignoredResponses            0                       # Number of memory responses ignored because the instruction is squashed (Count)
board.processor.cores9.core.lsq0.memOrderViolation         4103                       # Number of memory ordering violations (Count)
board.processor.cores9.core.lsq0.squashedStores        22816                       # Number of stores squashed (Count)
board.processor.cores9.core.lsq0.rescheduledLoads            0                       # Number of loads that were rescheduled (Count)
board.processor.cores9.core.lsq0.blockedByCache            3                       # Number of times an access to memory failed due to the cache being blocked (Count)
board.processor.cores9.core.lsq0.loadToUse::samples        27190                       # Distribution of cycle latency between the first time a load is issued and its completion (Unspecified)
board.processor.cores9.core.lsq0.loadToUse::mean    31.138654                       # Distribution of cycle latency between the first time a load is issued and its completion (Unspecified)
board.processor.cores9.core.lsq0.loadToUse::stdev    94.690790                       # Distribution of cycle latency between the first time a load is issued and its completion (Unspecified)
board.processor.cores9.core.lsq0.loadToUse::0-9        23029     84.70%     84.70% # Distribution of cycle latency between the first time a load is issued and its completion (Unspecified)
board.processor.cores9.core.lsq0.loadToUse::10-19          134      0.49%     85.19% # Distribution of cycle latency between the first time a load is issued and its completion (Unspecified)
board.processor.cores9.core.lsq0.loadToUse::20-29         1961      7.21%     92.40% # Distribution of cycle latency between the first time a load is issued and its completion (Unspecified)
board.processor.cores9.core.lsq0.loadToUse::30-39           14      0.05%     92.45% # Distribution of cycle latency between the first time a load is issued and its completion (Unspecified)
board.processor.cores9.core.lsq0.loadToUse::60-69            1      0.00%     92.46% # Distribution of cycle latency between the first time a load is issued and its completion (Unspecified)
board.processor.cores9.core.lsq0.loadToUse::100-109            1      0.00%     92.46% # Distribution of cycle latency between the first time a load is issued and its completion (Unspecified)
board.processor.cores9.core.lsq0.loadToUse::110-119            1      0.00%     92.46% # Distribution of cycle latency between the first time a load is issued and its completion (Unspecified)
board.processor.cores9.core.lsq0.loadToUse::130-139            3      0.01%     92.48% # Distribution of cycle latency between the first time a load is issued and its completion (Unspecified)
board.processor.cores9.core.lsq0.loadToUse::140-149           22      0.08%     92.56% # Distribution of cycle latency between the first time a load is issued and its completion (Unspecified)
board.processor.cores9.core.lsq0.loadToUse::150-159            2      0.01%     92.56% # Distribution of cycle latency between the first time a load is issued and its completion (Unspecified)
board.processor.cores9.core.lsq0.loadToUse::160-169            1      0.00%     92.57% # Distribution of cycle latency between the first time a load is issued and its completion (Unspecified)
board.processor.cores9.core.lsq0.loadToUse::170-179           41      0.15%     92.72% # Distribution of cycle latency between the first time a load is issued and its completion (Unspecified)
board.processor.cores9.core.lsq0.loadToUse::180-189            2      0.01%     92.73% # Distribution of cycle latency between the first time a load is issued and its completion (Unspecified)
board.processor.cores9.core.lsq0.loadToUse::190-199            2      0.01%     92.73% # Distribution of cycle latency between the first time a load is issued and its completion (Unspecified)
board.processor.cores9.core.lsq0.loadToUse::200-209           37      0.14%     92.87% # Distribution of cycle latency between the first time a load is issued and its completion (Unspecified)
board.processor.cores9.core.lsq0.loadToUse::210-219            4      0.01%     92.88% # Distribution of cycle latency between the first time a load is issued and its completion (Unspecified)
board.processor.cores9.core.lsq0.loadToUse::220-229            2      0.01%     92.89% # Distribution of cycle latency between the first time a load is issued and its completion (Unspecified)
board.processor.cores9.core.lsq0.loadToUse::230-239           44      0.16%     93.05% # Distribution of cycle latency between the first time a load is issued and its completion (Unspecified)
board.processor.cores9.core.lsq0.loadToUse::240-249            1      0.00%     93.06% # Distribution of cycle latency between the first time a load is issued and its completion (Unspecified)
board.processor.cores9.core.lsq0.loadToUse::250-259            3      0.01%     93.07% # Distribution of cycle latency between the first time a load is issued and its completion (Unspecified)
board.processor.cores9.core.lsq0.loadToUse::260-269           51      0.19%     93.25% # Distribution of cycle latency between the first time a load is issued and its completion (Unspecified)
board.processor.cores9.core.lsq0.loadToUse::270-279            1      0.00%     93.26% # Distribution of cycle latency between the first time a load is issued and its completion (Unspecified)
board.processor.cores9.core.lsq0.loadToUse::280-289            3      0.01%     93.27% # Distribution of cycle latency between the first time a load is issued and its completion (Unspecified)
board.processor.cores9.core.lsq0.loadToUse::290-299           49      0.18%     93.45% # Distribution of cycle latency between the first time a load is issued and its completion (Unspecified)
board.processor.cores9.core.lsq0.loadToUse::overflows         1781      6.55%    100.00% # Distribution of cycle latency between the first time a load is issued and its completion (Unspecified)
board.processor.cores9.core.lsq0.loadToUse::min_value            2                       # Distribution of cycle latency between the first time a load is issued and its completion (Unspecified)
board.processor.cores9.core.lsq0.loadToUse::max_value          389                       # Distribution of cycle latency between the first time a load is issued and its completion (Unspecified)
board.processor.cores9.core.lsq0.loadToUse::total        27190                       # Distribution of cycle latency between the first time a load is issued and its completion (Unspecified)
board.processor.cores9.core.mmu.dtb.rdAccesses        41769                       # TLB accesses on read requests (Count)
board.processor.cores9.core.mmu.dtb.wrAccesses        19020                       # TLB accesses on write requests (Count)
board.processor.cores9.core.mmu.dtb.rdMisses           89                       # TLB misses on read requests (Count)
board.processor.cores9.core.mmu.dtb.wrMisses           10                       # TLB misses on write requests (Count)
board.processor.cores9.core.mmu.dtb.walker.power_state.pwrStateResidencyTicks::UNDEFINED    790466000                       # Cumulative time (in ticks) in various power states (Tick)
board.processor.cores9.core.mmu.itb.rdAccesses            0                       # TLB accesses on read requests (Count)
board.processor.cores9.core.mmu.itb.wrAccesses        39779                       # TLB accesses on write requests (Count)
board.processor.cores9.core.mmu.itb.rdMisses            0                       # TLB misses on read requests (Count)
board.processor.cores9.core.mmu.itb.wrMisses           75                       # TLB misses on write requests (Count)
board.processor.cores9.core.mmu.itb.walker.power_state.pwrStateResidencyTicks::UNDEFINED    790466000                       # Cumulative time (in ticks) in various power states (Tick)
board.processor.cores9.core.power_state.pwrStateResidencyTicks::ON    790466000                       # Cumulative time (in ticks) in various power states (Tick)
board.processor.cores9.core.rename.squashCycles         2176                       # Number of cycles rename is squashing (Cycle)
board.processor.cores9.core.rename.idleCycles        26001                       # Number of cycles rename is idle (Cycle)
board.processor.cores9.core.rename.blockCycles       827740                       # Number of cycles rename is blocking (Cycle)
board.processor.cores9.core.rename.serializeStallCycles            0                       # count of cycles rename stalled for serializing inst (Cycle)
board.processor.cores9.core.rename.runCycles        38082                       # Number of cycles rename is running (Cycle)
board.processor.cores9.core.rename.unblockCycles        31230                       # Number of cycles rename is unblocking (Cycle)
board.processor.cores9.core.rename.renamedInsts       300838                       # Number of instructions processed by rename (Count)
board.processor.cores9.core.rename.IQFullEvents        28757                       # Number of times rename has blocked due to IQ full (Count)
board.processor.cores9.core.rename.LQFullEvents           63                       # Number of times rename has blocked due to LQ full (Count)
board.processor.cores9.core.rename.SQFullEvents          353                       # Number of times rename has blocked due to SQ full (Count)
board.processor.cores9.core.rename.renamedOperands       385999                       # Number of destination operands rename has renamed (Count)
board.processor.cores9.core.rename.lookups       894186                       # Number of register rename lookups that rename has made (Count)
board.processor.cores9.core.rename.intLookups       429481                       # Number of integer rename lookups (Count)
board.processor.cores9.core.rename.fpLookups           27                       # Number of floating rename lookups (Count)
board.processor.cores9.core.rename.committedMaps       130763                       # Number of HB maps that are committed (Count)
board.processor.cores9.core.rename.undoneMaps       255236                       # Number of HB maps that are undone due to squashing (Count)
board.processor.cores9.core.rename.serializing            0                       # count of serializing insts renamed (Count)
board.processor.cores9.core.rename.tempSerializing            0                       # count of temporary serializing insts renamed (Count)
board.processor.cores9.core.rename.skidInsts        63908                       # count of insts added to the skid buffer (Count)
board.processor.cores9.core.rob.reads         1183821                       # The number of ROB reads (Count)
board.processor.cores9.core.rob.writes         590728                       # The number of ROB writes (Count)
board.processor.cores9.core.thread_0.numInsts        65432                       # Number of Instructions committed (Count)
board.processor.cores9.core.thread_0.numOps       102431                       # Number of Ops committed (Count)
board.processor.cores9.core.thread_0.numMemRefs            0                       # Number of Memory References (Count)
board.workload.inst.arm                             0                       # number of arm instructions executed (Count)
board.workload.inst.quiesce                         0                       # number of quiesce instructions executed (Count)

---------- End Simulation Statistics   ----------
