
---------- Begin Simulation Statistics ----------
simSeconds                                   0.000412                       # Number of seconds simulated (Second)
simTicks                                    412035500                       # Number of ticks simulated (Tick)
finalTick                                   683921500                       # Number of ticks from beginning of simulation (restored from checkpoints and never reset) (Tick)
simFreq                                  1000000000000                       # The number of ticks per simulated second ((Tick/Second))
hostSeconds                                     35.35                       # Real time elapsed on the host (Second)
hostTickRate                                 11654359                       # The number of ticks simulated per host second (ticks/s) ((Tick/Second))
hostMemory                                    1753944                       # Number of bytes of host memory used (Byte)
simInsts                                      1663042                       # Number of instructions simulated (Count)
simOps                                        2591266                       # Number of ops (including micro ops) simulated (Count)
hostInstRate                                    47039                       # Simulator instruction rate (inst/s) ((Count/Second))
hostOpRate                                      73293                       # Simulator op (including micro ops) rate (op/s) ((Count/Second))
board.cache_hierarchy.ruby_system.delayHistogram::bucket_size          128                       # delay histogram for all message (Unspecified)
board.cache_hierarchy.ruby_system.delayHistogram::max_bucket         1279                       # delay histogram for all message (Unspecified)
board.cache_hierarchy.ruby_system.delayHistogram::samples       219565                       # delay histogram for all message (Unspecified)
board.cache_hierarchy.ruby_system.delayHistogram::mean   104.440635                       # delay histogram for all message (Unspecified)
board.cache_hierarchy.ruby_system.delayHistogram::stdev   307.809832                       # delay histogram for all message (Unspecified)
board.cache_hierarchy.ruby_system.delayHistogram |      196262     89.39%     89.39% |         457      0.21%     89.59% |         517      0.24%     89.83% |         476      0.22%     90.05% |         510      0.23%     90.28% |          32      0.01%     90.29% |         852      0.39%     90.68% |         447      0.20%     90.89% |       20012      9.11%    100.00% |           0      0.00%    100.00% # delay histogram for all message (Unspecified)
board.cache_hierarchy.ruby_system.delayHistogram::total       219565                       # delay histogram for all message (Unspecified)
board.cache_hierarchy.ruby_system.m_outstandReqHistSeqr::bucket_size            2                       (Unspecified)
board.cache_hierarchy.ruby_system.m_outstandReqHistSeqr::max_bucket           19                       (Unspecified)
board.cache_hierarchy.ruby_system.m_outstandReqHistSeqr::samples      1200679                       (Unspecified)
board.cache_hierarchy.ruby_system.m_outstandReqHistSeqr::mean     1.307659                       (Unspecified)
board.cache_hierarchy.ruby_system.m_outstandReqHistSeqr::gmean     1.232210                       (Unspecified)
board.cache_hierarchy.ruby_system.m_outstandReqHistSeqr::stdev     0.511075                       (Unspecified)
board.cache_hierarchy.ruby_system.m_outstandReqHistSeqr |      846540     70.51%     70.51% |      351376     29.26%     99.77% |        2307      0.19%     99.96% |         231      0.02%     99.98% |         103      0.01%     99.99% |          52      0.00%     99.99% |          22      0.00%    100.00% |          19      0.00%    100.00% |          29      0.00%    100.00% |           0      0.00%    100.00% (Unspecified)
board.cache_hierarchy.ruby_system.m_outstandReqHistSeqr::total      1200679                       (Unspecified)
board.cache_hierarchy.ruby_system.m_latencyHistSeqr::bucket_size          128                       (Unspecified)
board.cache_hierarchy.ruby_system.m_latencyHistSeqr::max_bucket         1279                       (Unspecified)
board.cache_hierarchy.ruby_system.m_latencyHistSeqr::samples      1200914                       (Unspecified)
board.cache_hierarchy.ruby_system.m_latencyHistSeqr::mean     7.017704                       (Unspecified)
board.cache_hierarchy.ruby_system.m_latencyHistSeqr::gmean     1.263685                       (Unspecified)
board.cache_hierarchy.ruby_system.m_latencyHistSeqr::stdev    36.069621                       (Unspecified)
board.cache_hierarchy.ruby_system.m_latencyHistSeqr |     1177884     98.08%     98.08% |        2560      0.21%     98.30% |       20460      1.70%    100.00% |           0      0.00%    100.00% |           0      0.00%    100.00% |           5      0.00%    100.00% |           5      0.00%    100.00% |           0      0.00%    100.00% |           0      0.00%    100.00% |           0      0.00%    100.00% (Unspecified)
board.cache_hierarchy.ruby_system.m_latencyHistSeqr::total      1200914                       (Unspecified)
board.cache_hierarchy.ruby_system.m_hitLatencyHistSeqr::bucket_size           16                       (Unspecified)
board.cache_hierarchy.ruby_system.m_hitLatencyHistSeqr::max_bucket          159                       (Unspecified)
board.cache_hierarchy.ruby_system.m_hitLatencyHistSeqr::samples      1130413                       (Unspecified)
board.cache_hierarchy.ruby_system.m_hitLatencyHistSeqr::mean     1.000792                       (Unspecified)
board.cache_hierarchy.ruby_system.m_hitLatencyHistSeqr::gmean     1.000176                       (Unspecified)
board.cache_hierarchy.ruby_system.m_hitLatencyHistSeqr::stdev     0.237437                       (Unspecified)
board.cache_hierarchy.ruby_system.m_hitLatencyHistSeqr |     1130406    100.00%    100.00% |           0      0.00%    100.00% |           0      0.00%    100.00% |           1      0.00%    100.00% |           1      0.00%    100.00% |           0      0.00%    100.00% |           4      0.00%    100.00% |           1      0.00%    100.00% |           0      0.00%    100.00% |           0      0.00%    100.00% (Unspecified)
board.cache_hierarchy.ruby_system.m_hitLatencyHistSeqr::total      1130413                       (Unspecified)
board.cache_hierarchy.ruby_system.m_missLatencyHistSeqr::bucket_size          128                       (Unspecified)
board.cache_hierarchy.ruby_system.m_missLatencyHistSeqr::max_bucket         1279                       (Unspecified)
board.cache_hierarchy.ruby_system.m_missLatencyHistSeqr::samples        70501                       (Unspecified)
board.cache_hierarchy.ruby_system.m_missLatencyHistSeqr::mean   103.492872                       (Unspecified)
board.cache_hierarchy.ruby_system.m_missLatencyHistSeqr::gmean    53.713904                       (Unspecified)
board.cache_hierarchy.ruby_system.m_missLatencyHistSeqr::stdev   110.782866                       (Unspecified)
board.cache_hierarchy.ruby_system.m_missLatencyHistSeqr |       47471     67.33%     67.33% |        2560      3.63%     70.96% |       20460     29.02%     99.99% |           0      0.00%     99.99% |           0      0.00%     99.99% |           5      0.01%     99.99% |           5      0.01%    100.00% |           0      0.00%    100.00% |           0      0.00%    100.00% |           0      0.00%    100.00% (Unspecified)
board.cache_hierarchy.ruby_system.m_missLatencyHistSeqr::total        70501                       (Unspecified)
board.cache_hierarchy.ruby_system.delayVCHist.vnet_0::bucket_size          128                       # delay histogram for vnet_0 (Unspecified)
board.cache_hierarchy.ruby_system.delayVCHist.vnet_0::max_bucket         1279                       # delay histogram for vnet_0 (Unspecified)
board.cache_hierarchy.ruby_system.delayVCHist.vnet_0::samples       109310                       # delay histogram for vnet_0 (Unspecified)
board.cache_hierarchy.ruby_system.delayVCHist.vnet_0::mean   209.565566                       # delay histogram for vnet_0 (Unspecified)
board.cache_hierarchy.ruby_system.delayVCHist.vnet_0::stdev   410.248608                       # delay histogram for vnet_0 (Unspecified)
board.cache_hierarchy.ruby_system.delayVCHist.vnet_0 |       86007     78.68%     78.68% |         457      0.42%     79.10% |         517      0.47%     79.57% |         476      0.44%     80.01% |         510      0.47%     80.47% |          32      0.03%     80.50% |         852      0.78%     81.28% |         447      0.41%     81.69% |       20012     18.31%    100.00% |           0      0.00%    100.00% # delay histogram for vnet_0 (Unspecified)
board.cache_hierarchy.ruby_system.delayVCHist.vnet_0::total       109310                       # delay histogram for vnet_0 (Unspecified)
board.cache_hierarchy.ruby_system.delayVCHist.vnet_1::bucket_size            4                       # delay histogram for vnet_1 (Unspecified)
board.cache_hierarchy.ruby_system.delayVCHist.vnet_1::max_bucket           39                       # delay histogram for vnet_1 (Unspecified)
board.cache_hierarchy.ruby_system.delayVCHist.vnet_1::samples        74788                       # delay histogram for vnet_1 (Unspecified)
board.cache_hierarchy.ruby_system.delayVCHist.vnet_1::mean     0.319303                       # delay histogram for vnet_1 (Unspecified)
board.cache_hierarchy.ruby_system.delayVCHist.vnet_1::stdev     1.637307                       # delay histogram for vnet_1 (Unspecified)
board.cache_hierarchy.ruby_system.delayVCHist.vnet_1 |       71877     96.11%     96.11% |         590      0.79%     96.90% |        2172      2.90%     99.80% |          60      0.08%     99.88% |          65      0.09%     99.97% |          10      0.01%     99.98% |          10      0.01%     99.99% |           2      0.00%    100.00% |           2      0.00%    100.00% |           0      0.00%    100.00% # delay histogram for vnet_1 (Unspecified)
board.cache_hierarchy.ruby_system.delayVCHist.vnet_1::total        74788                       # delay histogram for vnet_1 (Unspecified)
board.cache_hierarchy.ruby_system.delayVCHist.vnet_2::bucket_size            1                       # delay histogram for vnet_2 (Unspecified)
board.cache_hierarchy.ruby_system.delayVCHist.vnet_2::max_bucket            9                       # delay histogram for vnet_2 (Unspecified)
board.cache_hierarchy.ruby_system.delayVCHist.vnet_2::samples        35467                       # delay histogram for vnet_2 (Unspecified)
board.cache_hierarchy.ruby_system.delayVCHist.vnet_2::mean     0.000451                       # delay histogram for vnet_2 (Unspecified)
board.cache_hierarchy.ruby_system.delayVCHist.vnet_2::stdev     0.030034                       # delay histogram for vnet_2 (Unspecified)
board.cache_hierarchy.ruby_system.delayVCHist.vnet_2 |       35459     99.98%     99.98% |           0      0.00%     99.98% |           8      0.02%    100.00% |           0      0.00%    100.00% |           0      0.00%    100.00% |           0      0.00%    100.00% |           0      0.00%    100.00% |           0      0.00%    100.00% |           0      0.00%    100.00% |           0      0.00%    100.00% # delay histogram for vnet_2 (Unspecified)
board.cache_hierarchy.ruby_system.delayVCHist.vnet_2::total        35467                       # delay histogram for vnet_2 (Unspecified)
board.cache_hierarchy.ruby_system.Directory_Controller.Fetch         1054      0.00%      0.00% (Unspecified)
board.cache_hierarchy.ruby_system.Directory_Controller.Memory_Data         1054      0.00%      0.00% (Unspecified)
board.cache_hierarchy.ruby_system.Directory_Controller.I.Fetch         1054      0.00%      0.00% (Unspecified)
board.cache_hierarchy.ruby_system.Directory_Controller.IM.Memory_Data         1054      0.00%      0.00% (Unspecified)
board.cache_hierarchy.ruby_system.L1Cache_Controller.Load |       13400      4.72%      4.72% |       16956      5.97%     10.69% |       16920      5.96%     16.65% |       16910      5.96%     22.61% |       16904      5.95%     28.56% |       16906      5.95%     34.51% |       16915      5.96%     40.47% |       16914      5.96%     46.43% |       16901      5.95%     52.38% |       16900      5.95%     58.33% |       16905      5.95%     64.29% |       16896      5.95%     70.24% |       16899      5.95%     76.19% |       16897      5.95%     82.14% |       16901      5.95%     88.09% |       16898      5.95%     94.05% |       16904      5.95%    100.00% (Unspecified)
board.cache_hierarchy.ruby_system.L1Cache_Controller.Load::total       283926                       (Unspecified)
board.cache_hierarchy.ruby_system.L1Cache_Controller.Ifetch |       21558      3.28%      3.28% |       39699      6.04%      9.32% |       39830      6.06%     15.38% |       39748      6.05%     21.42% |       39737      6.04%     27.47% |       39728      6.04%     33.51% |       39747      6.05%     39.56% |       39750      6.05%     45.61% |       39722      6.04%     51.65% |       39719      6.04%     57.69% |       39733      6.04%     63.74% |       39725      6.04%     69.78% |       39736      6.04%     75.82% |       39737      6.04%     81.87% |       39733      6.04%     87.91% |       39728      6.04%     93.96% |       39730      6.04%    100.00% (Unspecified)
board.cache_hierarchy.ruby_system.L1Cache_Controller.Ifetch::total       657360                       (Unspecified)
board.cache_hierarchy.ruby_system.L1Cache_Controller.Store |       22369      8.62%      8.62% |       15084      5.81%     14.43% |       15087      5.81%     20.24% |       14792      5.70%     25.93% |       14792      5.70%     31.63% |       14792      5.70%     37.33% |       14792      5.70%     43.03% |       14792      5.70%     48.72% |       14792      5.70%     54.42% |       14792      5.70%     60.12% |       14792      5.70%     65.82% |       14792      5.70%     71.51% |       14792      5.70%     77.21% |       14792      5.70%     82.91% |       14792      5.70%     88.61% |       14792      5.70%     94.30% |       14792      5.70%    100.00% (Unspecified)
board.cache_hierarchy.ruby_system.L1Cache_Controller.Store::total       259628                       (Unspecified)
board.cache_hierarchy.ruby_system.L1Cache_Controller.Inv |          88     34.65%     34.65% |          13      5.12%     39.76% |          15      5.91%     45.67% |          13      5.12%     50.79% |          11      4.33%     55.12% |           8      3.15%     58.27% |           9      3.54%     61.81% |           8      3.15%     64.96% |           9      3.54%     68.50% |           9      3.54%     72.05% |          10      3.94%     75.98% |          11      4.33%     80.31% |          13      5.12%     85.43% |          14      5.51%     90.94% |          13      5.12%     96.06% |           7      2.76%     98.82% |           3      1.18%    100.00% (Unspecified)
board.cache_hierarchy.ruby_system.L1Cache_Controller.Inv::total          254                       (Unspecified)
board.cache_hierarchy.ruby_system.L1Cache_Controller.L1_Replacement |         858      3.21%      3.21% |        1639      6.14%      9.35% |        1641      6.15%     15.50% |        1613      6.04%     21.54% |        1612      6.04%     27.58% |        1613      6.04%     33.62% |        1615      6.05%     39.67% |        1612      6.04%     45.71% |        1612      6.04%     51.74% |        1611      6.03%     57.78% |        1612      6.04%     63.82% |        1611      6.03%     69.85% |        1612      6.04%     75.89% |        1609      6.03%     81.91% |        1610      6.03%     87.94% |        1609      6.03%     93.97% |        1610      6.03%    100.00% (Unspecified)
board.cache_hierarchy.ruby_system.L1Cache_Controller.L1_Replacement::total        26699                       (Unspecified)
board.cache_hierarchy.ruby_system.L1Cache_Controller.Fwd_GETX |          41      0.12%      0.12% |        2003      6.10%      6.23% |        2062      6.28%     12.51% |        2061      6.28%     18.79% |        2019      6.15%     24.94% |        1998      6.09%     31.03% |        2061      6.28%     37.31% |        2061      6.28%     43.59% |        2061      6.28%     49.87% |        2061      6.28%     56.15% |        2061      6.28%     62.43% |        2061      6.28%     68.71% |        2061      6.28%     74.99% |        2061      6.28%     81.27% |        2061      6.28%     87.55% |        2050      6.25%     93.80% |        2036      6.20%    100.00% (Unspecified)
board.cache_hierarchy.ruby_system.L1Cache_Controller.Fwd_GETX::total        32819                       (Unspecified)
board.cache_hierarchy.ruby_system.L1Cache_Controller.Fwd_GETS |         417     17.42%     17.42% |        1810     75.61%     93.02% |          13      0.54%     93.57% |          13      0.54%     94.11% |          14      0.58%     94.70% |          11      0.46%     95.15% |          11      0.46%     95.61% |          11      0.46%     96.07% |          11      0.46%     96.53% |          11      0.46%     96.99% |          11      0.46%     97.45% |          11      0.46%     97.91% |          13      0.54%     98.45% |          13      0.54%     99.00% |          12      0.50%     99.50% |           7      0.29%     99.79% |           5      0.21%    100.00% (Unspecified)
board.cache_hierarchy.ruby_system.L1Cache_Controller.Fwd_GETS::total         2394                       (Unspecified)
board.cache_hierarchy.ruby_system.L1Cache_Controller.Data |           3    100.00%    100.00% |           0      0.00%    100.00% |           0      0.00%    100.00% |           0      0.00%    100.00% |           0      0.00%    100.00% |           0      0.00%    100.00% |           0      0.00%    100.00% |           0      0.00%    100.00% |           0      0.00%    100.00% |           0      0.00%    100.00% |           0      0.00%    100.00% |           0      0.00%    100.00% |           0      0.00%    100.00% |           0      0.00%    100.00% |           0      0.00%    100.00% |           0      0.00%    100.00% |           0      0.00%    100.00% (Unspecified)
board.cache_hierarchy.ruby_system.L1Cache_Controller.Data::total            3                       (Unspecified)
board.cache_hierarchy.ruby_system.L1Cache_Controller.Data_Exclusive |          82      3.89%      3.89% |        1808     85.73%     89.62% |          15      0.71%     90.33% |          14      0.66%     90.99% |          15      0.71%     91.70% |          15      0.71%     92.41% |          14      0.66%     93.08% |          14      0.66%     93.74% |          14      0.66%     94.40% |          14      0.66%     95.07% |          14      0.66%     95.73% |          14      0.66%     96.40% |          16      0.76%     97.16% |          16      0.76%     97.91% |          15      0.71%     98.62% |          15      0.71%     99.34% |          14      0.66%    100.00% (Unspecified)
board.cache_hierarchy.ruby_system.L1Cache_Controller.Data_Exclusive::total         2109                       (Unspecified)
board.cache_hierarchy.ruby_system.L1Cache_Controller.DataS_fromL1 |          49      2.05%      2.05% |         281     11.74%     13.78% |        1815     75.81%     89.60% |          22      0.92%     90.52% |          18      0.75%     91.27% |          19      0.79%     92.06% |          16      0.67%     92.73% |          16      0.67%     93.40% |          16      0.67%     94.07% |          17      0.71%     94.78% |          17      0.71%     95.49% |          17      0.71%     96.20% |          18      0.75%     96.95% |          19      0.79%     97.74% |          19      0.79%     98.54% |          18      0.75%     99.29% |          17      0.71%    100.00% (Unspecified)
board.cache_hierarchy.ruby_system.L1Cache_Controller.DataS_fromL1::total         2394                       (Unspecified)
board.cache_hierarchy.ruby_system.L1Cache_Controller.Data_all_Acks |         762      1.16%      1.16% |        2241      3.41%      4.57% |        2567      3.90%      8.47% |        4310      6.55%     15.02% |        4265      6.48%     21.51% |        4242      6.45%     27.96% |        4316      6.56%     34.52% |        4313      6.56%     41.08% |        4308      6.55%     47.63% |        4307      6.55%     54.18% |        4308      6.55%     60.73% |        4307      6.55%     67.28% |        4307      6.55%     73.82% |        4305      6.55%     80.37% |        4307      6.55%     86.92% |        4307      6.55%     93.47% |        4296      6.53%    100.00% (Unspecified)
board.cache_hierarchy.ruby_system.L1Cache_Controller.Data_all_Acks::total        65768                       (Unspecified)
board.cache_hierarchy.ruby_system.L1Cache_Controller.Ack |          36     14.34%     14.34% |          12      4.78%     19.12% |          11      4.38%     23.51% |          15      5.98%     29.48% |          12      4.78%     34.26% |          13      5.18%     39.44% |          14      5.58%     45.02% |          13      5.18%     50.20% |          14      5.58%     55.78% |          14      5.58%     61.35% |          14      5.58%     66.93% |          14      5.58%     72.51% |          13      5.18%     77.69% |          13      5.18%     82.87% |          14      5.58%     88.45% |          15      5.98%     94.42% |          14      5.58%    100.00% (Unspecified)
board.cache_hierarchy.ruby_system.L1Cache_Controller.Ack::total          251                       (Unspecified)
board.cache_hierarchy.ruby_system.L1Cache_Controller.Ack_all |          31     13.48%     13.48% |          12      5.22%     18.70% |          11      4.78%     23.48% |          13      5.65%     29.13% |          12      5.22%     34.35% |          13      5.65%     40.00% |          13      5.65%     45.65% |          12      5.22%     50.87% |          13      5.65%     56.52% |          13      5.65%     62.17% |          13      5.65%     67.83% |          13      5.65%     73.48% |          13      5.65%     79.13% |          12      5.22%     84.35% |          12      5.22%     89.57% |          12      5.22%     94.78% |          12      5.22%    100.00% (Unspecified)
board.cache_hierarchy.ruby_system.L1Cache_Controller.Ack_all::total          230                       (Unspecified)
board.cache_hierarchy.ruby_system.L1Cache_Controller.WB_Ack |         360     61.54%     61.54% |          14      2.39%     63.93% |          14      2.39%     66.32% |          14      2.39%     68.72% |          14      2.39%     71.11% |          15      2.56%     73.68% |          14      2.39%     76.07% |          14      2.39%     78.46% |          14      2.39%     80.85% |          14      2.39%     83.25% |          14      2.39%     85.64% |          14      2.39%     88.03% |          14      2.39%     90.43% |          14      2.39%     92.82% |          14      2.39%     95.21% |          14      2.39%     97.61% |          14      2.39%    100.00% (Unspecified)
board.cache_hierarchy.ruby_system.L1Cache_Controller.WB_Ack::total          585                       (Unspecified)
board.cache_hierarchy.ruby_system.L1Cache_Controller.NP.Load |         133      0.40%      0.40% |        2090      6.21%      6.61% |        2092      6.22%     12.82% |        2095      6.23%     19.05% |        2096      6.23%     25.28% |        2098      6.23%     31.51% |        2098      6.23%     37.75% |        2094      6.22%     43.97% |        2096      6.23%     50.20% |        2095      6.23%     56.42% |        2096      6.23%     62.65% |        2095      6.23%     68.88% |        2097      6.23%     75.11% |        2094      6.22%     81.33% |        2095      6.23%     87.56% |        2093      6.22%     93.78% |        2094      6.22%    100.00% (Unspecified)
board.cache_hierarchy.ruby_system.L1Cache_Controller.NP.Load::total        33651                       (Unspecified)
board.cache_hierarchy.ruby_system.L1Cache_Controller.NP.Ifetch |         331     10.77%     10.77% |         188      6.12%     16.88% |         192      6.25%     23.13% |         172      5.60%     28.72% |         167      5.43%     34.16% |         167      5.43%     39.59% |         173      5.63%     45.22% |         173      5.63%     50.85% |         167      5.43%     56.28% |         168      5.47%     61.74% |         168      5.47%     67.21% |         168      5.47%     72.67% |         168      5.47%     78.14% |         168      5.47%     83.60% |         168      5.47%     89.07% |         168      5.47%     94.53% |         168      5.47%    100.00% (Unspecified)
board.cache_hierarchy.ruby_system.L1Cache_Controller.NP.Ifetch::total         3074                       (Unspecified)
board.cache_hierarchy.ruby_system.L1Cache_Controller.NP.Store |         394     43.54%     43.54% |          61      6.74%     50.28% |          60      6.63%     56.91% |          29      3.20%     60.11% |          28      3.09%     63.20% |          27      2.98%     66.19% |          28      3.09%     69.28% |          29      3.20%     72.49% |          28      3.09%     75.58% |          28      3.09%     78.67% |          28      3.09%     81.77% |          28      3.09%     84.86% |          27      2.98%     87.85% |          27      2.98%     90.83% |          27      2.98%     93.81% |          28      3.09%     96.91% |          28      3.09%    100.00% (Unspecified)
board.cache_hierarchy.ruby_system.L1Cache_Controller.NP.Store::total          905                       (Unspecified)
board.cache_hierarchy.ruby_system.L1Cache_Controller.NP.Inv |          12    100.00%    100.00% |           0      0.00%    100.00% |           0      0.00%    100.00% |           0      0.00%    100.00% |           0      0.00%    100.00% |           0      0.00%    100.00% |           0      0.00%    100.00% |           0      0.00%    100.00% |           0      0.00%    100.00% |           0      0.00%    100.00% |           0      0.00%    100.00% |           0      0.00%    100.00% |           0      0.00%    100.00% |           0      0.00%    100.00% |           0      0.00%    100.00% |           0      0.00%    100.00% |           0      0.00%    100.00% (Unspecified)
board.cache_hierarchy.ruby_system.L1Cache_Controller.NP.Inv::total           12                       (Unspecified)
board.cache_hierarchy.ruby_system.L1Cache_Controller.I.Load |          33     60.00%     60.00% |           1      1.82%     61.82% |           6     10.91%     72.73% |           3      5.45%     78.18% |           0      0.00%     78.18% |           0      0.00%     78.18% |           0      0.00%     78.18% |           0      0.00%     78.18% |           0      0.00%     78.18% |           0      0.00%     78.18% |           0      0.00%     78.18% |           0      0.00%     78.18% |           1      1.82%     80.00% |           3      5.45%     85.45% |           3      5.45%     90.91% |           3      5.45%     96.36% |           2      3.64%    100.00% (Unspecified)
board.cache_hierarchy.ruby_system.L1Cache_Controller.I.Load::total           55                       (Unspecified)
board.cache_hierarchy.ruby_system.L1Cache_Controller.I.Store |           5      0.02%      0.02% |        1990      6.11%      6.12% |        2047      6.28%     12.40% |        2047      6.28%     18.68% |        2007      6.16%     24.84% |        1984      6.09%     30.93% |        2047      6.28%     37.21% |        2047      6.28%     43.49% |        2047      6.28%     49.77% |        2047      6.28%     56.06% |        2047      6.28%     62.34% |        2047      6.28%     68.62% |        2048      6.28%     74.90% |        2048      6.28%     81.19% |        2048      6.28%     87.47% |        2048      6.28%     93.76% |        2035      6.24%    100.00% (Unspecified)
board.cache_hierarchy.ruby_system.L1Cache_Controller.I.Store::total        32589                       (Unspecified)
board.cache_hierarchy.ruby_system.L1Cache_Controller.I.L1_Replacement |          58     95.08%     95.08% |           1      1.64%     96.72% |           1      1.64%     98.36% |           1      1.64%    100.00% |           0      0.00%    100.00% |           0      0.00%    100.00% |           0      0.00%    100.00% |           0      0.00%    100.00% |           0      0.00%    100.00% |           0      0.00%    100.00% |           0      0.00%    100.00% |           0      0.00%    100.00% |           0      0.00%    100.00% |           0      0.00%    100.00% |           0      0.00%    100.00% |           0      0.00%    100.00% |           0      0.00%    100.00% (Unspecified)
board.cache_hierarchy.ruby_system.L1Cache_Controller.I.L1_Replacement::total           61                       (Unspecified)
board.cache_hierarchy.ruby_system.L1Cache_Controller.S.Load |         332     21.07%     21.07% |          80      5.08%     26.14% |          84      5.33%     31.47% |          94      5.96%     37.44% |          69      4.38%     41.81% |          73      4.63%     46.45% |          72      4.57%     51.02% |          78      4.95%     55.96% |          67      4.25%     60.22% |          67      4.25%     64.47% |          65      4.12%     68.59% |          68      4.31%     72.91% |          85      5.39%     78.30% |          86      5.46%     83.76% |          85      5.39%     89.15% |          83      5.27%     94.42% |          88      5.58%    100.00% (Unspecified)
board.cache_hierarchy.ruby_system.L1Cache_Controller.S.Load::total         1576                       (Unspecified)
board.cache_hierarchy.ruby_system.L1Cache_Controller.S.Ifetch |       21227      3.24%      3.24% |       39511      6.04%      9.28% |       39638      6.06%     15.34% |       39576      6.05%     21.39% |       39570      6.05%     27.44% |       39561      6.05%     33.48% |       39574      6.05%     39.53% |       39577      6.05%     45.58% |       39555      6.05%     51.63% |       39551      6.04%     57.67% |       39565      6.05%     63.72% |       39557      6.05%     69.76% |       39568      6.05%     75.81% |       39569      6.05%     81.86% |       39565      6.05%     87.91% |       39560      6.05%     93.95% |       39562      6.05%    100.00% (Unspecified)
board.cache_hierarchy.ruby_system.L1Cache_Controller.S.Ifetch::total       654286                       (Unspecified)
board.cache_hierarchy.ruby_system.L1Cache_Controller.S.Store |          28     12.33%     12.33% |          12      5.29%     17.62% |          11      4.85%     22.47% |          13      5.73%     28.19% |          12      5.29%     33.48% |          13      5.73%     39.21% |          13      5.73%     44.93% |          12      5.29%     50.22% |          13      5.73%     55.95% |          13      5.73%     61.67% |          13      5.73%     67.40% |          13      5.73%     73.13% |          13      5.73%     78.85% |          12      5.29%     84.14% |          12      5.29%     89.43% |          12      5.29%     94.71% |          12      5.29%    100.00% (Unspecified)
board.cache_hierarchy.ruby_system.L1Cache_Controller.S.Store::total          227                       (Unspecified)
board.cache_hierarchy.ruby_system.L1Cache_Controller.S.Inv |          76     31.40%     31.40% |          13      5.37%     36.78% |          15      6.20%     42.98% |          13      5.37%     48.35% |          11      4.55%     52.89% |           8      3.31%     56.20% |           9      3.72%     59.92% |           8      3.31%     63.22% |           9      3.72%     66.94% |           9      3.72%     70.66% |          10      4.13%     74.79% |          11      4.55%     79.34% |          13      5.37%     84.71% |          14      5.79%     90.50% |          13      5.37%     95.87% |           7      2.89%     98.76% |           3      1.24%    100.00% (Unspecified)
board.cache_hierarchy.ruby_system.L1Cache_Controller.S.Inv::total          242                       (Unspecified)
board.cache_hierarchy.ruby_system.L1Cache_Controller.S.L1_Replacement |         440      1.69%      1.69% |        1624      6.23%      7.92% |        1626      6.24%     14.16% |        1598      6.13%     20.30% |        1598      6.13%     26.43% |        1598      6.13%     32.56% |        1601      6.15%     38.71% |        1598      6.13%     44.84% |        1598      6.13%     50.98% |        1597      6.13%     57.11% |        1598      6.13%     63.24% |        1597      6.13%     69.37% |        1598      6.13%     75.50% |        1595      6.12%     81.63% |        1596      6.13%     87.75% |        1595      6.12%     93.87% |        1596      6.13%    100.00% (Unspecified)
board.cache_hierarchy.ruby_system.L1Cache_Controller.S.L1_Replacement::total        26053                       (Unspecified)
board.cache_hierarchy.ruby_system.L1Cache_Controller.E.Load |        1705     92.36%     92.36% |          17      0.92%     93.28% |           9      0.49%     93.77% |           8      0.43%     94.20% |           9      0.49%     94.69% |           8      0.43%     95.12% |           8      0.43%     95.56% |           8      0.43%     95.99% |           8      0.43%     96.42% |           8      0.43%     96.86% |           8      0.43%     97.29% |           8      0.43%     97.72% |           8      0.43%     98.16% |           9      0.49%     98.65% |           8      0.43%     99.08% |           9      0.49%     99.57% |           8      0.43%    100.00% (Unspecified)
board.cache_hierarchy.ruby_system.L1Cache_Controller.E.Load::total         1846                       (Unspecified)
board.cache_hierarchy.ruby_system.L1Cache_Controller.E.Store |          28     16.87%     16.87% |           8      4.82%     21.69% |          10      6.02%     27.71% |           8      4.82%     32.53% |           8      4.82%     37.35% |           9      5.42%     42.77% |           8      4.82%     47.59% |           8      4.82%     52.41% |           8      4.82%     57.23% |           8      4.82%     62.05% |           8      4.82%     66.87% |           8      4.82%     71.69% |           9      5.42%     77.11% |          10      6.02%     83.13% |          10      6.02%     89.16% |           9      5.42%     94.58% |           9      5.42%    100.00% (Unspecified)
board.cache_hierarchy.ruby_system.L1Cache_Controller.E.Store::total          166                       (Unspecified)
board.cache_hierarchy.ruby_system.L1Cache_Controller.E.L1_Replacement |          11     39.29%     39.29% |           1      3.57%     42.86% |           1      3.57%     46.43% |           1      3.57%     50.00% |           1      3.57%     53.57% |           2      7.14%     60.71% |           1      3.57%     64.29% |           1      3.57%     67.86% |           1      3.57%     71.43% |           1      3.57%     75.00% |           1      3.57%     78.57% |           1      3.57%     82.14% |           1      3.57%     85.71% |           1      3.57%     89.29% |           1      3.57%     92.86% |           1      3.57%     96.43% |           1      3.57%    100.00% (Unspecified)
board.cache_hierarchy.ruby_system.L1Cache_Controller.E.L1_Replacement::total           28                       (Unspecified)
board.cache_hierarchy.ruby_system.L1Cache_Controller.E.Fwd_GETS |           7      0.38%      0.38% |        1796     98.52%     98.90% |           1      0.05%     98.96% |           2      0.11%     99.07% |           3      0.16%     99.23% |           1      0.05%     99.29% |           1      0.05%     99.34% |           1      0.05%     99.40% |           1      0.05%     99.45% |           1      0.05%     99.51% |           1      0.05%     99.56% |           1      0.05%     99.62% |           2      0.11%     99.73% |           2      0.11%     99.84% |           1      0.05%     99.89% |           1      0.05%     99.95% |           1      0.05%    100.00% (Unspecified)
board.cache_hierarchy.ruby_system.L1Cache_Controller.E.Fwd_GETS::total         1823                       (Unspecified)
board.cache_hierarchy.ruby_system.L1Cache_Controller.M.Load |       11197      4.54%      4.54% |       14768      5.98%     10.52% |       14729      5.97%     16.49% |       14710      5.96%     22.45% |       14730      5.97%     28.42% |       14727      5.97%     34.38% |       14737      5.97%     40.36% |       14734      5.97%     46.33% |       14730      5.97%     52.29% |       14730      5.97%     58.26% |       14736      5.97%     64.23% |       14725      5.97%     70.20% |       14708      5.96%     76.16% |       14705      5.96%     82.12% |       14710      5.96%     88.08% |       14710      5.96%     94.04% |       14712      5.96%    100.00% (Unspecified)
board.cache_hierarchy.ruby_system.L1Cache_Controller.M.Load::total       246798                       (Unspecified)
board.cache_hierarchy.ruby_system.L1Cache_Controller.M.Store |       21914      9.71%      9.71% |       13013      5.76%     15.47% |       12959      5.74%     21.21% |       12695      5.62%     26.84% |       12737      5.64%     32.48% |       12759      5.65%     38.13% |       12696      5.62%     43.76% |       12696      5.62%     49.38% |       12696      5.62%     55.00% |       12696      5.62%     60.63% |       12696      5.62%     66.25% |       12696      5.62%     71.88% |       12695      5.62%     77.50% |       12695      5.62%     83.12% |       12695      5.62%     88.75% |       12695      5.62%     94.37% |       12708      5.63%    100.00% (Unspecified)
board.cache_hierarchy.ruby_system.L1Cache_Controller.M.Store::total       225741                       (Unspecified)
board.cache_hierarchy.ruby_system.L1Cache_Controller.M.L1_Replacement |         349     62.66%     62.66% |          13      2.33%     64.99% |          13      2.33%     67.32% |          13      2.33%     69.66% |          13      2.33%     71.99% |          13      2.33%     74.33% |          13      2.33%     76.66% |          13      2.33%     78.99% |          13      2.33%     81.33% |          13      2.33%     83.66% |          13      2.33%     86.00% |          13      2.33%     88.33% |          13      2.33%     90.66% |          13      2.33%     93.00% |          13      2.33%     95.33% |          13      2.33%     97.67% |          13      2.33%    100.00% (Unspecified)
board.cache_hierarchy.ruby_system.L1Cache_Controller.M.L1_Replacement::total          557                       (Unspecified)
board.cache_hierarchy.ruby_system.L1Cache_Controller.M.Fwd_GETX |          41      0.12%      0.12% |        2003      6.10%      6.23% |        2062      6.28%     12.51% |        2061      6.28%     18.79% |        2019      6.15%     24.94% |        1998      6.09%     31.03% |        2061      6.28%     37.31% |        2061      6.28%     43.59% |        2061      6.28%     49.87% |        2061      6.28%     56.15% |        2061      6.28%     62.43% |        2061      6.28%     68.71% |        2061      6.28%     74.99% |        2061      6.28%     81.27% |        2061      6.28%     87.55% |        2050      6.25%     93.80% |        2036      6.20%    100.00% (Unspecified)
board.cache_hierarchy.ruby_system.L1Cache_Controller.M.Fwd_GETX::total        32819                       (Unspecified)
board.cache_hierarchy.ruby_system.L1Cache_Controller.M.Fwd_GETS |         410     71.80%     71.80% |          14      2.45%     74.26% |          12      2.10%     76.36% |          11      1.93%     78.28% |          11      1.93%     80.21% |          10      1.75%     81.96% |          10      1.75%     83.71% |          10      1.75%     85.46% |          10      1.75%     87.22% |          10      1.75%     88.97% |          10      1.75%     90.72% |          10      1.75%     92.47% |          11      1.93%     94.40% |          11      1.93%     96.32% |          11      1.93%     98.25% |           6      1.05%     99.30% |           4      0.70%    100.00% (Unspecified)
board.cache_hierarchy.ruby_system.L1Cache_Controller.M.Fwd_GETS::total          571                       (Unspecified)
board.cache_hierarchy.ruby_system.L1Cache_Controller.IS.Data_Exclusive |          82      3.89%      3.89% |        1808     85.73%     89.62% |          15      0.71%     90.33% |          14      0.66%     90.99% |          15      0.71%     91.70% |          15      0.71%     92.41% |          14      0.66%     93.08% |          14      0.66%     93.74% |          14      0.66%     94.40% |          14      0.66%     95.07% |          14      0.66%     95.73% |          14      0.66%     96.40% |          16      0.76%     97.16% |          16      0.76%     97.91% |          15      0.71%     98.62% |          15      0.71%     99.34% |          14      0.66%    100.00% (Unspecified)
board.cache_hierarchy.ruby_system.L1Cache_Controller.IS.Data_Exclusive::total         2109                       (Unspecified)
board.cache_hierarchy.ruby_system.L1Cache_Controller.IS.DataS_fromL1 |          49      2.05%      2.05% |         281     11.74%     13.78% |        1815     75.81%     89.60% |          22      0.92%     90.52% |          18      0.75%     91.27% |          19      0.79%     92.06% |          16      0.67%     92.73% |          16      0.67%     93.40% |          16      0.67%     94.07% |          17      0.71%     94.78% |          17      0.71%     95.49% |          17      0.71%     96.20% |          18      0.75%     96.95% |          19      0.79%     97.74% |          19      0.79%     98.54% |          18      0.75%     99.29% |          17      0.71%    100.00% (Unspecified)
board.cache_hierarchy.ruby_system.L1Cache_Controller.IS.DataS_fromL1::total         2394                       (Unspecified)
board.cache_hierarchy.ruby_system.L1Cache_Controller.IS.Data_all_Acks |         366      1.13%      1.13% |         190      0.59%      1.72% |         460      1.43%      3.15% |        2234      6.92%     10.07% |        2230      6.91%     16.98% |        2231      6.91%     23.89% |        2241      6.94%     30.83% |        2237      6.93%     37.76% |        2233      6.92%     44.68% |        2232      6.92%     51.60% |        2233      6.92%     58.52% |        2232      6.92%     65.43% |        2232      6.92%     72.35% |        2230      6.91%     79.25% |        2232      6.92%     86.17% |        2231      6.91%     93.08% |        2233      6.92%    100.00% (Unspecified)
board.cache_hierarchy.ruby_system.L1Cache_Controller.IS.Data_all_Acks::total        32277                       (Unspecified)
board.cache_hierarchy.ruby_system.L1Cache_Controller.IM.Data |           3    100.00%    100.00% |           0      0.00%    100.00% |           0      0.00%    100.00% |           0      0.00%    100.00% |           0      0.00%    100.00% |           0      0.00%    100.00% |           0      0.00%    100.00% |           0      0.00%    100.00% |           0      0.00%    100.00% |           0      0.00%    100.00% |           0      0.00%    100.00% |           0      0.00%    100.00% |           0      0.00%    100.00% |           0      0.00%    100.00% |           0      0.00%    100.00% |           0      0.00%    100.00% |           0      0.00%    100.00% (Unspecified)
board.cache_hierarchy.ruby_system.L1Cache_Controller.IM.Data::total            3                       (Unspecified)
board.cache_hierarchy.ruby_system.L1Cache_Controller.IM.Data_all_Acks |         396      1.18%      1.18% |        2051      6.12%      7.31% |        2107      6.29%     13.60% |        2076      6.20%     19.80% |        2035      6.08%     25.87% |        2011      6.00%     31.88% |        2075      6.20%     38.07% |        2076      6.20%     44.27% |        2075      6.20%     50.47% |        2075      6.20%     56.66% |        2075      6.20%     62.86% |        2075      6.20%     69.05% |        2075      6.20%     75.25% |        2075      6.20%     81.45% |        2075      6.20%     87.64% |        2076      6.20%     93.84% |        2063      6.16%    100.00% (Unspecified)
board.cache_hierarchy.ruby_system.L1Cache_Controller.IM.Data_all_Acks::total        33491                       (Unspecified)
board.cache_hierarchy.ruby_system.L1Cache_Controller.SM.Ack |          36     14.34%     14.34% |          12      4.78%     19.12% |          11      4.38%     23.51% |          15      5.98%     29.48% |          12      4.78%     34.26% |          13      5.18%     39.44% |          14      5.58%     45.02% |          13      5.18%     50.20% |          14      5.58%     55.78% |          14      5.58%     61.35% |          14      5.58%     66.93% |          14      5.58%     72.51% |          13      5.18%     77.69% |          13      5.18%     82.87% |          14      5.58%     88.45% |          15      5.98%     94.42% |          14      5.58%    100.00% (Unspecified)
board.cache_hierarchy.ruby_system.L1Cache_Controller.SM.Ack::total          251                       (Unspecified)
board.cache_hierarchy.ruby_system.L1Cache_Controller.SM.Ack_all |          31     13.48%     13.48% |          12      5.22%     18.70% |          11      4.78%     23.48% |          13      5.65%     29.13% |          12      5.22%     34.35% |          13      5.65%     40.00% |          13      5.65%     45.65% |          12      5.22%     50.87% |          13      5.65%     56.52% |          13      5.65%     62.17% |          13      5.65%     67.83% |          13      5.65%     73.48% |          13      5.65%     79.13% |          12      5.22%     84.35% |          12      5.22%     89.57% |          12      5.22%     94.78% |          12      5.22%    100.00% (Unspecified)
board.cache_hierarchy.ruby_system.L1Cache_Controller.SM.Ack_all::total          230                       (Unspecified)
board.cache_hierarchy.ruby_system.L1Cache_Controller.M_I.WB_Ack |         360     61.54%     61.54% |          14      2.39%     63.93% |          14      2.39%     66.32% |          14      2.39%     68.72% |          14      2.39%     71.11% |          15      2.56%     73.68% |          14      2.39%     76.07% |          14      2.39%     78.46% |          14      2.39%     80.85% |          14      2.39%     83.25% |          14      2.39%     85.64% |          14      2.39%     88.03% |          14      2.39%     90.43% |          14      2.39%     92.82% |          14      2.39%     95.21% |          14      2.39%     97.61% |          14      2.39%    100.00% (Unspecified)
board.cache_hierarchy.ruby_system.L1Cache_Controller.M_I.WB_Ack::total          585                       (Unspecified)
board.cache_hierarchy.ruby_system.L2Cache_Controller.L1_GET_INSTR |         196      6.38%      6.38% |         122      3.97%     10.34% |         131      4.26%     14.61% |         160      5.20%     19.81% |         186      6.05%     25.86% |         221      7.19%     33.05% |         223      7.25%     40.31% |         174      5.66%     45.97% |         179      5.82%     51.79% |         203      6.60%     58.39% |         196      6.38%     64.77% |         212      6.90%     71.67% |         220      7.16%     78.82% |         197      6.41%     85.23% |         226      7.35%     92.58% |         228      7.42%    100.00% (Unspecified)
board.cache_hierarchy.ruby_system.L2Cache_Controller.L1_GET_INSTR::total         3074                       (Unspecified)
board.cache_hierarchy.ruby_system.L2Cache_Controller.L1_GETS |        2068      6.14%      6.14% |        2159      6.41%     12.54% |        2137      6.34%     18.88% |        2141      6.35%     25.23% |        2121      6.29%     31.53% |        2120      6.29%     37.82% |        2111      6.26%     44.08% |        2079      6.17%     50.25% |        2089      6.20%     56.44% |        2121      6.29%     62.74% |        2115      6.27%     69.01% |        2052      6.09%     75.10% |        2095      6.22%     81.31% |        2085      6.19%     87.50% |        2111      6.26%     93.76% |        2102      6.24%    100.00% (Unspecified)
board.cache_hierarchy.ruby_system.L2Cache_Controller.L1_GETS::total        33706                       (Unspecified)
board.cache_hierarchy.ruby_system.L2Cache_Controller.L1_GETX |      205820     93.42%     93.42% |          47      0.02%     93.44% |          45      0.02%     93.46% |          47      0.02%     93.48% |          87      0.04%     93.52% |         109      0.05%     93.57% |          74      0.03%     93.60% |          76      0.03%     93.64% |          76      0.03%     93.67% |          43      0.02%     93.69% |          44      0.02%     93.71% |          28      0.01%     93.72% |          60      0.03%     93.75% |          58      0.03%     93.78% |          38      0.02%     93.79% |       13673      6.21%    100.00% (Unspecified)
board.cache_hierarchy.ruby_system.L2Cache_Controller.L1_GETX::total       220325                       (Unspecified)
board.cache_hierarchy.ruby_system.L2Cache_Controller.L1_UPGRADE |           2      0.88%      0.88% |          53     23.25%     24.12% |          32     14.04%     38.16% |          15      6.58%     44.74% |          13      5.70%     50.44% |          32     14.04%     64.47% |           7      3.07%     67.54% |           5      2.19%     69.74% |           0      0.00%     69.74% |           2      0.88%     70.61% |          25     10.96%     81.58% |           0      0.00%     81.58% |          21      9.21%     90.79% |           2      0.88%     91.67% |          17      7.46%     99.12% |           2      0.88%    100.00% (Unspecified)
board.cache_hierarchy.ruby_system.L2Cache_Controller.L1_UPGRADE::total          228                       (Unspecified)
board.cache_hierarchy.ruby_system.L2Cache_Controller.L1_PUTX |          23      3.93%      3.93% |          49      8.38%     12.31% |          31      5.30%     17.61% |          49      8.38%     25.98% |          62     10.60%     36.58% |          67     11.45%     48.03% |          46      7.86%     55.90% |          47      8.03%     63.93% |          51      8.72%     72.65% |          30      5.13%     77.78% |          29      4.96%     82.74% |          11      1.88%     84.62% |          29      4.96%     89.57% |          38      6.50%     96.07% |          13      2.22%     98.29% |          10      1.71%    100.00% (Unspecified)
board.cache_hierarchy.ruby_system.L2Cache_Controller.L1_PUTX::total          585                       (Unspecified)
board.cache_hierarchy.ruby_system.L2Cache_Controller.Mem_Data |          54      5.12%      5.12% |          67      6.36%     11.48% |          70      6.64%     18.12% |          73      6.93%     25.05% |          88      8.35%     33.40% |          89      8.44%     41.84% |          74      7.02%     48.86% |          67      6.36%     55.22% |          64      6.07%     61.29% |          66      6.26%     67.55% |          50      4.74%     72.30% |          36      3.42%     75.71% |          57      5.41%     81.12% |          67      6.36%     87.48% |          65      6.17%     93.64% |          67      6.36%    100.00% (Unspecified)
board.cache_hierarchy.ruby_system.L2Cache_Controller.Mem_Data::total         1054                       (Unspecified)
board.cache_hierarchy.ruby_system.L2Cache_Controller.WB_Data |          26      4.55%      4.55% |          86     15.06%     19.61% |          66     11.56%     31.17% |          31      5.43%     36.60% |          33      5.78%     42.38% |          57      9.98%     52.36% |          22      3.85%     56.22% |          21      3.68%     59.89% |          19      3.33%     63.22% |          38      6.65%     69.88% |          41      7.18%     77.06% |          19      3.33%     80.39% |          37      6.48%     86.87% |          20      3.50%     90.37% |          33      5.78%     96.15% |          22      3.85%    100.00% (Unspecified)
board.cache_hierarchy.ruby_system.L2Cache_Controller.WB_Data::total          571                       (Unspecified)
board.cache_hierarchy.ruby_system.L2Cache_Controller.WB_Data_clean |         107      5.87%      5.87% |         112      6.14%     12.01% |         113      6.20%     18.21% |         130      7.13%     25.34% |         113      6.20%     31.54% |         119      6.53%     38.07% |         116      6.36%     44.43% |         112      6.14%     50.58% |         113      6.20%     56.77% |         111      6.09%     62.86% |         114      6.25%     69.12% |         109      5.98%     75.10% |         114      6.25%     81.35% |         115      6.31%     87.66% |         115      6.31%     93.97% |         110      6.03%    100.00% (Unspecified)
board.cache_hierarchy.ruby_system.L2Cache_Controller.WB_Data_clean::total         1823                       (Unspecified)
board.cache_hierarchy.ruby_system.L2Cache_Controller.Unblock |         133      5.56%      5.56% |         198      8.27%     13.83% |         179      7.48%     21.30% |         161      6.73%     28.03% |         146      6.10%     34.13% |         176      7.35%     41.48% |         138      5.76%     47.24% |         133      5.56%     52.80% |         132      5.51%     58.31% |         149      6.22%     64.54% |         155      6.47%     71.01% |         128      5.35%     76.36% |         151      6.31%     82.66% |         135      5.64%     88.30% |         148      6.18%     94.49% |         132      5.51%    100.00% (Unspecified)
board.cache_hierarchy.ruby_system.L2Cache_Controller.Unblock::total         2394                       (Unspecified)
board.cache_hierarchy.ruby_system.L2Cache_Controller.Exclusive_Unblock |       24668     68.85%     68.85% |         246      0.69%     69.53% |         209      0.58%     70.12% |         210      0.59%     70.70% |         251      0.70%     71.40% |         283      0.79%     72.19% |         219      0.61%     72.80% |         214      0.60%     73.40% |         214      0.60%     74.00% |         175      0.49%     74.49% |         188      0.52%     75.01% |         141      0.39%     75.41% |         200      0.56%     75.96% |         185      0.52%     76.48% |         177      0.49%     76.97% |        8250     23.03%    100.00% (Unspecified)
board.cache_hierarchy.ruby_system.L2Cache_Controller.Exclusive_Unblock::total        35830                       (Unspecified)
board.cache_hierarchy.ruby_system.L2Cache_Controller.NP.L1_GET_INSTR |          25      6.56%      6.56% |          23      6.04%     12.60% |          26      6.82%     19.42% |          28      7.35%     26.77% |          27      7.09%     33.86% |          27      7.09%     40.94% |          26      6.82%     47.77% |          22      5.77%     53.54% |          18      4.72%     58.27% |          20      5.25%     63.52% |          20      5.25%     68.77% |          23      6.04%     74.80% |          27      7.09%     81.89% |          22      5.77%     87.66% |          23      6.04%     93.70% |          24      6.30%    100.00% (Unspecified)
board.cache_hierarchy.ruby_system.L2Cache_Controller.NP.L1_GET_INSTR::total          381                       (Unspecified)
board.cache_hierarchy.ruby_system.L2Cache_Controller.NP.L1_GETS |           0      0.00%      0.00% |           2      3.03%      3.03% |           0      0.00%      3.03% |           0      0.00%      3.03% |          16     24.24%     27.27% |           1      1.52%     28.79% |           2      3.03%     31.82% |           1      1.52%     33.33% |           1      1.52%     34.85% |          17     25.76%     60.61% |           2      3.03%     63.64% |           0      0.00%     63.64% |           1      1.52%     65.15% |           1      1.52%     66.67% |           5      7.58%     74.24% |          17     25.76%    100.00% (Unspecified)
board.cache_hierarchy.ruby_system.L2Cache_Controller.NP.L1_GETS::total           66                       (Unspecified)
board.cache_hierarchy.ruby_system.L2Cache_Controller.NP.L1_GETX |          29      4.78%      4.78% |          42      6.92%     11.70% |          44      7.25%     18.95% |          45      7.41%     26.36% |          45      7.41%     33.77% |          61     10.05%     43.82% |          46      7.58%     51.40% |          44      7.25%     58.65% |          45      7.41%     66.06% |          29      4.78%     70.84% |          28      4.61%     75.45% |          13      2.14%     77.59% |          29      4.78%     82.37% |          44      7.25%     89.62% |          37      6.10%     95.72% |          26      4.28%    100.00% (Unspecified)
board.cache_hierarchy.ruby_system.L2Cache_Controller.NP.L1_GETX::total          607                       (Unspecified)
board.cache_hierarchy.ruby_system.L2Cache_Controller.SS.L1_GET_INSTR |         171      6.35%      6.35% |          99      3.68%     10.03% |         105      3.90%     13.94% |         132      4.91%     18.84% |         159      5.91%     24.75% |         194      7.21%     31.96% |         196      7.28%     39.24% |         152      5.65%     44.89% |         161      5.98%     50.87% |         182      6.76%     57.64% |         176      6.54%     64.18% |         189      7.02%     71.20% |         193      7.17%     78.37% |         175      6.50%     84.88% |         203      7.54%     92.42% |         204      7.58%    100.00% (Unspecified)
board.cache_hierarchy.ruby_system.L2Cache_Controller.SS.L1_GET_INSTR::total         2691                       (Unspecified)
board.cache_hierarchy.ruby_system.L2Cache_Controller.SS.L1_GETS |        1812      6.20%      6.20% |        1815      6.22%     12.42% |        1826      6.25%     18.67% |        1832      6.27%     24.95% |        1824      6.25%     31.19% |        1802      6.17%     37.36% |        1835      6.28%     43.65% |        1813      6.21%     49.85% |        1819      6.23%     56.08% |        1842      6.31%     62.39% |        1841      6.30%     68.69% |        1811      6.20%     74.90% |        1824      6.25%     81.14% |        1825      6.25%     87.39% |        1841      6.30%     93.70% |        1841      6.30%    100.00% (Unspecified)
board.cache_hierarchy.ruby_system.L2Cache_Controller.SS.L1_GETS::total        29203                       (Unspecified)
board.cache_hierarchy.ruby_system.L2Cache_Controller.SS.L1_GETX |           0      0.00%      0.00% |           0      0.00%      0.00% |           0      0.00%      0.00% |           0      0.00%      0.00% |           3    100.00%    100.00% |           0      0.00%    100.00% |           0      0.00%    100.00% |           0      0.00%    100.00% |           0      0.00%    100.00% |           0      0.00%    100.00% |           0      0.00%    100.00% |           0      0.00%    100.00% |           0      0.00%    100.00% |           0      0.00%    100.00% |           0      0.00%    100.00% |           0      0.00%    100.00% (Unspecified)
board.cache_hierarchy.ruby_system.L2Cache_Controller.SS.L1_GETX::total            3                       (Unspecified)
board.cache_hierarchy.ruby_system.L2Cache_Controller.SS.L1_UPGRADE |           2      0.88%      0.88% |          53     23.35%     24.23% |          32     14.10%     38.33% |          15      6.61%     44.93% |          13      5.73%     50.66% |          32     14.10%     64.76% |           7      3.08%     67.84% |           5      2.20%     70.04% |           0      0.00%     70.04% |           2      0.88%     70.93% |          25     11.01%     81.94% |           0      0.00%     81.94% |          20      8.81%     90.75% |           2      0.88%     91.63% |          17      7.49%     99.12% |           2      0.88%    100.00% (Unspecified)
board.cache_hierarchy.ruby_system.L2Cache_Controller.SS.L1_UPGRADE::total          227                       (Unspecified)
board.cache_hierarchy.ruby_system.L2Cache_Controller.M.L1_GETS |         123      6.02%      6.02% |         144      7.05%     13.07% |         132      6.46%     19.53% |         148      7.24%     26.77% |         135      6.61%     33.38% |         141      6.90%     40.28% |         136      6.66%     46.94% |         132      6.46%     53.40% |         137      6.71%     60.11% |         113      5.53%     65.64% |         117      5.73%     71.37% |         113      5.53%     76.90% |         119      5.82%     82.72% |         124      6.07%     88.79% |         117      5.73%     94.52% |         112      5.48%    100.00% (Unspecified)
board.cache_hierarchy.ruby_system.L2Cache_Controller.M.L1_GETS::total         2043                       (Unspecified)
board.cache_hierarchy.ruby_system.L2Cache_Controller.M.L1_GETX |           1      1.54%      1.54% |           2      3.08%      4.62% |           1      1.54%      6.15% |           2      3.08%      9.23% |          20     30.77%     40.00% |          18     27.69%     67.69% |           0      0.00%     67.69% |           2      3.08%     70.77% |           1      1.54%     72.31% |           0      0.00%     72.31% |           1      1.54%     73.85% |           1      1.54%     75.38% |          14     21.54%     96.92% |           0      0.00%     96.92% |           1      1.54%     98.46% |           1      1.54%    100.00% (Unspecified)
board.cache_hierarchy.ruby_system.L2Cache_Controller.M.L1_GETX::total           65                       (Unspecified)
board.cache_hierarchy.ruby_system.L2Cache_Controller.MT.L1_GETS |         133      5.56%      5.56% |         198      8.27%     13.83% |         179      7.48%     21.30% |         161      6.73%     28.03% |         146      6.10%     34.13% |         176      7.35%     41.48% |         138      5.76%     47.24% |         133      5.56%     52.80% |         132      5.51%     58.31% |         149      6.22%     64.54% |         155      6.47%     71.01% |         128      5.35%     76.36% |         151      6.31%     82.66% |         135      5.64%     88.30% |         148      6.18%     94.49% |         132      5.51%    100.00% (Unspecified)
board.cache_hierarchy.ruby_system.L2Cache_Controller.MT.L1_GETS::total         2394                       (Unspecified)
board.cache_hierarchy.ruby_system.L2Cache_Controller.MT.L1_GETX |       24513     74.69%     74.69% |           3      0.01%     74.70% |           0      0.00%     74.70% |           0      0.00%     74.70% |          19      0.06%     74.76% |          30      0.09%     74.85% |          28      0.09%     74.94% |          30      0.09%     75.03% |          30      0.09%     75.12% |          14      0.04%     75.16% |          15      0.05%     75.21% |          14      0.04%     75.25% |          17      0.05%     75.30% |          14      0.04%     75.34% |           0      0.00%     75.34% |        8092     24.66%    100.00% (Unspecified)
board.cache_hierarchy.ruby_system.L2Cache_Controller.MT.L1_GETX::total        32819                       (Unspecified)
board.cache_hierarchy.ruby_system.L2Cache_Controller.MT.L1_PUTX |          23      3.93%      3.93% |          49      8.38%     12.31% |          31      5.30%     17.61% |          49      8.38%     25.98% |          62     10.60%     36.58% |          67     11.45%     48.03% |          46      7.86%     55.90% |          47      8.03%     63.93% |          51      8.72%     72.65% |          30      5.13%     77.78% |          29      4.96%     82.74% |          11      1.88%     84.62% |          29      4.96%     89.57% |          38      6.50%     96.07% |          13      2.22%     98.29% |          10      1.71%    100.00% (Unspecified)
board.cache_hierarchy.ruby_system.L2Cache_Controller.MT.L1_PUTX::total          585                       (Unspecified)
board.cache_hierarchy.ruby_system.L2Cache_Controller.ISS.Mem_Data |           0      0.00%      0.00% |           2      3.03%      3.03% |           0      0.00%      3.03% |           0      0.00%      3.03% |          16     24.24%     27.27% |           1      1.52%     28.79% |           2      3.03%     31.82% |           1      1.52%     33.33% |           1      1.52%     34.85% |          17     25.76%     60.61% |           2      3.03%     63.64% |           0      0.00%     63.64% |           1      1.52%     65.15% |           1      1.52%     66.67% |           5      7.58%     74.24% |          17     25.76%    100.00% (Unspecified)
board.cache_hierarchy.ruby_system.L2Cache_Controller.ISS.Mem_Data::total           66                       (Unspecified)
board.cache_hierarchy.ruby_system.L2Cache_Controller.IS.L1_GET_INSTR |           0      0.00%      0.00% |           0      0.00%      0.00% |           0      0.00%      0.00% |           0      0.00%      0.00% |           0      0.00%      0.00% |           0      0.00%      0.00% |           1     50.00%     50.00% |           0      0.00%     50.00% |           0      0.00%     50.00% |           1     50.00%    100.00% |           0      0.00%    100.00% |           0      0.00%    100.00% |           0      0.00%    100.00% |           0      0.00%    100.00% |           0      0.00%    100.00% |           0      0.00%    100.00% (Unspecified)
board.cache_hierarchy.ruby_system.L2Cache_Controller.IS.L1_GET_INSTR::total            2                       (Unspecified)
board.cache_hierarchy.ruby_system.L2Cache_Controller.IS.Mem_Data |          25      6.56%      6.56% |          23      6.04%     12.60% |          26      6.82%     19.42% |          28      7.35%     26.77% |          27      7.09%     33.86% |          27      7.09%     40.94% |          26      6.82%     47.77% |          22      5.77%     53.54% |          18      4.72%     58.27% |          20      5.25%     63.52% |          20      5.25%     68.77% |          23      6.04%     74.80% |          27      7.09%     81.89% |          22      5.77%     87.66% |          23      6.04%     93.70% |          24      6.30%    100.00% (Unspecified)
board.cache_hierarchy.ruby_system.L2Cache_Controller.IS.Mem_Data::total          381                       (Unspecified)
board.cache_hierarchy.ruby_system.L2Cache_Controller.IM.Mem_Data |          29      4.78%      4.78% |          42      6.92%     11.70% |          44      7.25%     18.95% |          45      7.41%     26.36% |          45      7.41%     33.77% |          61     10.05%     43.82% |          46      7.58%     51.40% |          44      7.25%     58.65% |          45      7.41%     66.06% |          29      4.78%     70.84% |          28      4.61%     75.45% |          13      2.14%     77.59% |          29      4.78%     82.37% |          44      7.25%     89.62% |          37      6.10%     95.72% |          26      4.28%    100.00% (Unspecified)
board.cache_hierarchy.ruby_system.L2Cache_Controller.IM.Mem_Data::total          607                       (Unspecified)
board.cache_hierarchy.ruby_system.L2Cache_Controller.SS_MB.Exclusive_Unblock |           2      0.87%      0.87% |          53     23.04%     23.91% |          32     13.91%     37.83% |          15      6.52%     44.35% |          16      6.96%     51.30% |          32     13.91%     65.22% |           7      3.04%     68.26% |           5      2.17%     70.43% |           0      0.00%     70.43% |           2      0.87%     71.30% |          25     10.87%     82.17% |           0      0.00%     82.17% |          20      8.70%     90.87% |           2      0.87%     91.74% |          17      7.39%     99.13% |           2      0.87%    100.00% (Unspecified)
board.cache_hierarchy.ruby_system.L2Cache_Controller.SS_MB.Exclusive_Unblock::total          230                       (Unspecified)
board.cache_hierarchy.ruby_system.L2Cache_Controller.MT_MB.L1_GETX |      181277     97.03%     97.03% |           0      0.00%     97.03% |           0      0.00%     97.03% |           0      0.00%     97.03% |           0      0.00%     97.03% |           0      0.00%     97.03% |           0      0.00%     97.03% |           0      0.00%     97.03% |           0      0.00%     97.03% |           0      0.00%     97.03% |           0      0.00%     97.03% |           0      0.00%     97.03% |           0      0.00%     97.03% |           0      0.00%     97.03% |           0      0.00%     97.03% |        5554      2.97%    100.00% (Unspecified)
board.cache_hierarchy.ruby_system.L2Cache_Controller.MT_MB.L1_GETX::total       186831                       (Unspecified)
board.cache_hierarchy.ruby_system.L2Cache_Controller.MT_MB.Exclusive_Unblock |       24666     69.29%     69.29% |         193      0.54%     69.83% |         177      0.50%     70.33% |         195      0.55%     70.87% |         235      0.66%     71.53% |         251      0.71%     72.24% |         212      0.60%     72.83% |         209      0.59%     73.42% |         214      0.60%     74.02% |         173      0.49%     74.51% |         163      0.46%     74.97% |         141      0.40%     75.36% |         180      0.51%     75.87% |         183      0.51%     76.38% |         160      0.45%     76.83% |        8248     23.17%    100.00% (Unspecified)
board.cache_hierarchy.ruby_system.L2Cache_Controller.MT_MB.Exclusive_Unblock::total        35600                       (Unspecified)
board.cache_hierarchy.ruby_system.L2Cache_Controller.MT_IIB.WB_Data |          25      4.62%      4.62% |          71     13.12%     17.74% |          65     12.01%     29.76% |          30      5.55%     35.30% |          32      5.91%     41.22% |          57     10.54%     51.76% |          22      4.07%     55.82% |          21      3.88%     59.70% |          19      3.51%     63.22% |          37      6.84%     70.06% |          32      5.91%     75.97% |          19      3.51%     79.48% |          37      6.84%     86.32% |          20      3.70%     90.02% |          33      6.10%     96.12% |          21      3.88%    100.00% (Unspecified)
board.cache_hierarchy.ruby_system.L2Cache_Controller.MT_IIB.WB_Data::total          541                       (Unspecified)
board.cache_hierarchy.ruby_system.L2Cache_Controller.MT_IIB.WB_Data_clean |         107      5.93%      5.93% |         110      6.10%     12.03% |         113      6.26%     18.29% |         115      6.37%     24.67% |         113      6.26%     30.93% |         119      6.60%     37.53% |         116      6.43%     43.96% |         112      6.21%     50.17% |         112      6.21%     56.37% |         110      6.10%     62.47% |         114      6.32%     68.79% |         109      6.04%     74.83% |         114      6.32%     81.15% |         115      6.37%     87.53% |         115      6.37%     93.90% |         110      6.10%    100.00% (Unspecified)
board.cache_hierarchy.ruby_system.L2Cache_Controller.MT_IIB.WB_Data_clean::total         1804                       (Unspecified)
board.cache_hierarchy.ruby_system.L2Cache_Controller.MT_IIB.Unblock |           1      2.04%      2.04% |          17     34.69%     36.73% |           1      2.04%     38.78% |          16     32.65%     71.43% |           1      2.04%     73.47% |           0      0.00%     73.47% |           0      0.00%     73.47% |           0      0.00%     73.47% |           1      2.04%     75.51% |           2      4.08%     79.59% |           9     18.37%     97.96% |           0      0.00%     97.96% |           0      0.00%     97.96% |           0      0.00%     97.96% |           0      0.00%     97.96% |           1      2.04%    100.00% (Unspecified)
board.cache_hierarchy.ruby_system.L2Cache_Controller.MT_IIB.Unblock::total           49                       (Unspecified)
board.cache_hierarchy.ruby_system.L2Cache_Controller.MT_IB.WB_Data |           1      3.33%      3.33% |          15     50.00%     53.33% |           1      3.33%     56.67% |           1      3.33%     60.00% |           1      3.33%     63.33% |           0      0.00%     63.33% |           0      0.00%     63.33% |           0      0.00%     63.33% |           0      0.00%     63.33% |           1      3.33%     66.67% |           9     30.00%     96.67% |           0      0.00%     96.67% |           0      0.00%     96.67% |           0      0.00%     96.67% |           0      0.00%     96.67% |           1      3.33%    100.00% (Unspecified)
board.cache_hierarchy.ruby_system.L2Cache_Controller.MT_IB.WB_Data::total           30                       (Unspecified)
board.cache_hierarchy.ruby_system.L2Cache_Controller.MT_IB.WB_Data_clean |           0      0.00%      0.00% |           2     10.53%     10.53% |           0      0.00%     10.53% |          15     78.95%     89.47% |           0      0.00%     89.47% |           0      0.00%     89.47% |           0      0.00%     89.47% |           0      0.00%     89.47% |           1      5.26%     94.74% |           1      5.26%    100.00% |           0      0.00%    100.00% |           0      0.00%    100.00% |           0      0.00%    100.00% |           0      0.00%    100.00% |           0      0.00%    100.00% |           0      0.00%    100.00% (Unspecified)
board.cache_hierarchy.ruby_system.L2Cache_Controller.MT_IB.WB_Data_clean::total           19                       (Unspecified)
board.cache_hierarchy.ruby_system.L2Cache_Controller.MT_SB.L1_UPGRADE |           0      0.00%      0.00% |           0      0.00%      0.00% |           0      0.00%      0.00% |           0      0.00%      0.00% |           0      0.00%      0.00% |           0      0.00%      0.00% |           0      0.00%      0.00% |           0      0.00%      0.00% |           0      0.00%      0.00% |           0      0.00%      0.00% |           0      0.00%      0.00% |           0      0.00%      0.00% |           1    100.00%    100.00% |           0      0.00%    100.00% |           0      0.00%    100.00% |           0      0.00%    100.00% (Unspecified)
board.cache_hierarchy.ruby_system.L2Cache_Controller.MT_SB.L1_UPGRADE::total            1                       (Unspecified)
board.cache_hierarchy.ruby_system.L2Cache_Controller.MT_SB.Unblock |         132      5.63%      5.63% |         181      7.72%     13.35% |         178      7.59%     20.94% |         145      6.18%     27.12% |         145      6.18%     33.30% |         176      7.51%     40.81% |         138      5.88%     46.70% |         133      5.67%     52.37% |         131      5.59%     57.95% |         147      6.27%     64.22% |         146      6.23%     70.45% |         128      5.46%     75.91% |         151      6.44%     82.35% |         135      5.76%     88.10% |         148      6.31%     94.41% |         131      5.59%    100.00% (Unspecified)
board.cache_hierarchy.ruby_system.L2Cache_Controller.MT_SB.Unblock::total         2345                       (Unspecified)
board.cache_hierarchy.ruby_system.RequestType.LD.latency_hist_seqr::bucket_size           32                       (Unspecified)
board.cache_hierarchy.ruby_system.RequestType.LD.latency_hist_seqr::max_bucket          319                       (Unspecified)
board.cache_hierarchy.ruby_system.RequestType.LD.latency_hist_seqr::samples       283926                       (Unspecified)
board.cache_hierarchy.ruby_system.RequestType.LD.latency_hist_seqr::mean     3.441788                       (Unspecified)
board.cache_hierarchy.ruby_system.RequestType.LD.latency_hist_seqr::gmean     1.436871                       (Unspecified)
board.cache_hierarchy.ruby_system.RequestType.LD.latency_hist_seqr::stdev     6.930649                       (Unspecified)
board.cache_hierarchy.ruby_system.RequestType.LD.latency_hist_seqr |      282156     99.38%     99.38% |        1704      0.60%     99.98% |           0      0.00%     99.98% |          39      0.01%     99.99% |          22      0.01%    100.00% |           5      0.00%    100.00% |           0      0.00%    100.00% |           0      0.00%    100.00% |           0      0.00%    100.00% |           0      0.00%    100.00% (Unspecified)
board.cache_hierarchy.ruby_system.RequestType.LD.latency_hist_seqr::total       283926                       (Unspecified)
board.cache_hierarchy.ruby_system.RequestType.LD.hit_latency_hist_seqr::bucket_size            1                       (Unspecified)
board.cache_hierarchy.ruby_system.RequestType.LD.hit_latency_hist_seqr::max_bucket            9                       (Unspecified)
board.cache_hierarchy.ruby_system.RequestType.LD.hit_latency_hist_seqr::samples       250220                       (Unspecified)
board.cache_hierarchy.ruby_system.RequestType.LD.hit_latency_hist_seqr::mean     1.000008                       (Unspecified)
board.cache_hierarchy.ruby_system.RequestType.LD.hit_latency_hist_seqr::gmean     1.000006                       (Unspecified)
board.cache_hierarchy.ruby_system.RequestType.LD.hit_latency_hist_seqr::stdev     0.002827                       (Unspecified)
board.cache_hierarchy.ruby_system.RequestType.LD.hit_latency_hist_seqr |           0      0.00%      0.00% |      250218    100.00%    100.00% |           2      0.00%    100.00% |           0      0.00%    100.00% |           0      0.00%    100.00% |           0      0.00%    100.00% |           0      0.00%    100.00% |           0      0.00%    100.00% |           0      0.00%    100.00% |           0      0.00%    100.00% (Unspecified)
board.cache_hierarchy.ruby_system.RequestType.LD.hit_latency_hist_seqr::total       250220                       (Unspecified)
board.cache_hierarchy.ruby_system.RequestType.LD.miss_latency_hist_seqr::bucket_size           32                       (Unspecified)
board.cache_hierarchy.ruby_system.RequestType.LD.miss_latency_hist_seqr::max_bucket          319                       (Unspecified)
board.cache_hierarchy.ruby_system.RequestType.LD.miss_latency_hist_seqr::samples        33706                       (Unspecified)
board.cache_hierarchy.ruby_system.RequestType.LD.miss_latency_hist_seqr::mean    21.568593                       (Unspecified)
board.cache_hierarchy.ruby_system.RequestType.LD.miss_latency_hist_seqr::gmean    21.183938                       (Unspecified)
board.cache_hierarchy.ruby_system.RequestType.LD.miss_latency_hist_seqr::stdev     5.636952                       (Unspecified)
board.cache_hierarchy.ruby_system.RequestType.LD.miss_latency_hist_seqr |       31936     94.75%     94.75% |        1704      5.06%     99.80% |           0      0.00%     99.80% |          39      0.12%     99.92% |          22      0.07%     99.99% |           5      0.01%    100.00% |           0      0.00%    100.00% |           0      0.00%    100.00% |           0      0.00%    100.00% |           0      0.00%    100.00% (Unspecified)
board.cache_hierarchy.ruby_system.RequestType.LD.miss_latency_hist_seqr::total        33706                       (Unspecified)
board.cache_hierarchy.ruby_system.RequestType.ST.latency_hist_seqr::bucket_size          128                       (Unspecified)
board.cache_hierarchy.ruby_system.RequestType.ST.latency_hist_seqr::max_bucket         1279                       (Unspecified)
board.cache_hierarchy.ruby_system.RequestType.ST.latency_hist_seqr::samples       192129                       (Unspecified)
board.cache_hierarchy.ruby_system.RequestType.ST.latency_hist_seqr::mean     1.412967                       (Unspecified)
board.cache_hierarchy.ruby_system.RequestType.ST.latency_hist_seqr::gmean     1.021777                       (Unspecified)
board.cache_hierarchy.ruby_system.RequestType.ST.latency_hist_seqr::stdev     7.516489                       (Unspecified)
[...]
board.processor.cores9.core.executeStats0.numMemRefs        62837                       # Number of memory refs (Count)
board.processor.cores9.core.executeStats0.numMiscRegReads        88762                       # Number of times the Misc registers were read (Count)
board.processor.cores9.core.executeStats0.numMiscRegWrites            1                       # Number of times the Misc registers were written (Count)
board.processor.cores9.core.executeStats0.numVecAluAccesses            0                       # Number of vector alu accesses (Count)
board.processor.cores9.core.executeStats0.numDiscardedOps            0                       # Number of ops (including micro ops) which were discarded before commit (Count)
board.processor.cores9.core.fetch.predictedBranches        23088                       # Number of branches that fetch has predicted taken (Count)
board.processor.cores9.core.fetch.cycles       663216                       # Number of cycles fetch has run and was not squashing or blocked (Cycle)
board.processor.cores9.core.fetch.squashCycles         4576                       # Number of cycles fetch has spent squashing (Cycle)
board.processor.cores9.core.fetch.miscStallCycles           30                       # Number of cycles fetch has spent waiting on interrupts, or bad addresses, or out of MSHRs (Cycle)
board.processor.cores9.core.fetch.pendingTrapStallCycles          190                       # Number of stall cycles due to pending traps (Cycle)
board.processor.cores9.core.fetch.cacheLines        39740                       # Number of cache lines fetched (Count)
board.processor.cores9.core.fetch.icacheSquashes         2142                       # Number of outstanding Icache misses that were squashed (Count)
board.processor.cores9.core.fetch.nisnDist::samples       707959                       # Number of instructions fetched each cycle (Total) (Count)
board.processor.cores9.core.fetch.nisnDist::mean     0.526011                       # Number of instructions fetched each cycle (Total) (Count)
board.processor.cores9.core.fetch.nisnDist::stdev     1.828723                       # Number of instructions fetched each cycle (Total) (Count)
board.processor.cores9.core.fetch.nisnDist::underflows            0      0.00%      0.00% # Number of instructions fetched each cycle (Total) (Count)
board.processor.cores9.core.fetch.nisnDist::0       647047     91.40%     91.40% # Number of instructions fetched each cycle (Total) (Count)
board.processor.cores9.core.fetch.nisnDist::1         2111      0.30%     91.69% # Number of instructions fetched each cycle (Total) (Count)
board.processor.cores9.core.fetch.nisnDist::2         6192      0.87%     92.57% # Number of instructions fetched each cycle (Total) (Count)
board.processor.cores9.core.fetch.nisnDist::3           71      0.01%     92.58% # Number of instructions fetched each cycle (Total) (Count)
board.processor.cores9.core.fetch.nisnDist::4         6237      0.88%     93.46% # Number of instructions fetched each cycle (Total) (Count)
board.processor.cores9.core.fetch.nisnDist::5         4237      0.60%     94.06% # Number of instructions fetched each cycle (Total) (Count)
board.processor.cores9.core.fetch.nisnDist::6         6255      0.88%     94.94% # Number of instructions fetched each cycle (Total) (Count)
board.processor.cores9.core.fetch.nisnDist::7        12449      1.76%     96.70% # Number of instructions fetched each cycle (Total) (Count)
board.processor.cores9.core.fetch.nisnDist::8        23360      3.30%    100.00% # Number of instructions fetched each cycle (Total) (Count)
board.processor.cores9.core.fetch.nisnDist::overflows            0      0.00%    100.00% # Number of instructions fetched each cycle (Total) (Count)
board.processor.cores9.core.fetch.nisnDist::min_value            0                       # Number of instructions fetched each cycle (Total) (Count)
board.processor.cores9.core.fetch.nisnDist::max_value            8                       # Number of instructions fetched each cycle (Total) (Count)
board.processor.cores9.core.fetch.nisnDist::total       707959                       # Number of instructions fetched each cycle (Total) (Count)
board.processor.cores9.core.fetchStats0.numInsts       248590                       # Number of instructions fetched (thread level) (Count)
board.processor.cores9.core.fetchStats0.numOps            0                       # Number of ops (including micro ops) fetched (thread level) (Count)
board.processor.cores9.core.fetchStats0.fetchRate     0.351059                       # Number of inst fetches per cycle ((Count/Cycle))
board.processor.cores9.core.fetchStats0.numBranches        23674                       # Number of branches fetched (Count)
board.processor.cores9.core.fetchStats0.branchRate     0.033432                       # Number of branch fetches per cycle (Ratio)
board.processor.cores9.core.fetchStats0.icacheStallCycles        42235                       # ICache total stall cycles (Cycle)
board.processor.cores9.core.fetchStats0.numFetchSuspends            0                       # Number of times Execute suspended instruction fetching (Count)
board.processor.cores9.core.iew.idleCycles            0                       # Number of cycles IEW is idle (Cycle)
board.processor.cores9.core.iew.squashCycles         2175                       # Number of cycles IEW is squashing (Cycle)
board.processor.cores9.core.iew.blockCycles       587894                       # Number of cycles IEW is blocking (Cycle)
board.processor.cores9.core.iew.unblockCycles         6166                       # Number of cycles IEW is unblocking (Cycle)
board.processor.cores9.core.iew.dispatchedInsts       277891                       # Number of instructions dispatched to IQ (Count)
board.processor.cores9.core.iew.dispSquashedInsts           24                       # Number of squashed instructions skipped by dispatch (Count)
board.processor.cores9.core.iew.dispLoadInsts        72738                       # Number of dispatched load instructions (Count)
board.processor.cores9.core.iew.dispStoreInsts        33490                       # Number of dispatched store instructions (Count)
board.processor.cores9.core.iew.dispNonSpecInsts         4130                       # Number of dispatched non-speculative instructions (Count)
board.processor.cores9.core.iew.iqFullEvents         4114                       # Number of times the IQ has become full, causing a stall (Count)
board.processor.cores9.core.iew.lsqFullEvents            1                       # Number of times the LSQ has become full, causing a stall (Count)
board.processor.cores9.core.iew.memOrderViolationEvents         2057                       # Number of memory order violations (Count)
board.processor.cores9.core.iew.predictedTakenIncorrect            7                       # Number of branches that were predicted taken incorrectly (Count)
board.processor.cores9.core.iew.predictedNotTakenIncorrect          116                       # Number of branches that were predicted not taken incorrectly (Count)
board.processor.cores9.core.iew.branchMispredicts          123                       # Number of branch mispredicts detected at execute (Count)
board.processor.cores9.core.iew.instsToCommit       186394                       # Cumulative count of insts sent to commit (Count)
board.processor.cores9.core.iew.writebackCount       186287                       # Cumulative count of insts written-back (Count)
board.processor.cores9.core.iew.producerInst       135089                       # Number of instructions producing a value (Count)
board.processor.cores9.core.iew.consumerInst       237694                       # Number of instructions consuming a value (Count)
board.processor.cores9.core.iew.wbRate       0.263075                       # Insts written-back per cycle ((Count/Cycle))
board.processor.cores9.core.iew.wbFanout     0.568332                       # Average fanout of values written-back ((Count/Count))
board.processor.cores9.core.interrupts.clk_domain.clock         8000                       # Clock period in ticks (Tick)
board.processor.cores9.core.lsq0.forwLoads         4287                       # Number of loads that had data forwarded from stores (Count)
board.processor.cores9.core.lsq0.squashedLoads        43500                       # Number of loads squashed (Count)
board.processor.cores9.core.lsq0.ignoredResponses            0                       # Number of memory responses ignored because the instruction is squashed (Count)
board.processor.cores9.core.lsq0.memOrderViolation         2057                       # Number of memory ordering violations (Count)
board.processor.cores9.core.lsq0.squashedStores        20762                       # Number of stores squashed (Count)
board.processor.cores9.core.lsq0.rescheduledLoads            0                       # Number of loads that were rescheduled (Count)
board.processor.cores9.core.lsq0.blockedByCache            1                       # Number of times an access to memory failed due to the cache being blocked (Count)
board.processor.cores9.core.lsq0.loadToUse::samples        29238                       # Distribution of cycle latency between the first time a load is issued and its completion (Unspecified)
board.processor.cores9.core.lsq0.loadToUse::mean    21.806485                       # Distribution of cycle latency between the first time a load is issued and its completion (Unspecified)
board.processor.cores9.core.lsq0.loadToUse::stdev    64.571366                       # Distribution of cycle latency between the first time a load is issued and its completion (Unspecified)
board.processor.cores9.core.lsq0.loadToUse::0-9        25078     85.77%     85.77% # Distribution of cycle latency between the first time a load is issued and its completion (Unspecified)
board.processor.cores9.core.lsq0.loadToUse::10-19          134      0.46%     86.23% # Distribution of cycle latency between the first time a load is issued and its completion (Unspecified)
board.processor.cores9.core.lsq0.loadToUse::20-29         1961      6.71%     92.94% # Distribution of cycle latency between the first time a load is issued and its completion (Unspecified)
board.processor.cores9.core.lsq0.loadToUse::30-39           14      0.05%     92.99% # Distribution of cycle latency between the first time a load is issued and its completion (Unspecified)
board.processor.cores9.core.lsq0.loadToUse::40-49            1      0.00%     92.99% # Distribution of cycle latency between the first time a load is issued and its completion (Unspecified)
board.processor.cores9.core.lsq0.loadToUse::50-59           35      0.12%     93.11% # Distribution of cycle latency between the first time a load is issued and its completion (Unspecified)
board.processor.cores9.core.lsq0.loadToUse::60-69            7      0.02%     93.13% # Distribution of cycle latency between the first time a load is issued and its completion (Unspecified)
board.processor.cores9.core.lsq0.loadToUse::80-89           24      0.08%     93.21% # Distribution of cycle latency between the first time a load is issued and its completion (Unspecified)
board.processor.cores9.core.lsq0.loadToUse::90-99            5      0.02%     93.23% # Distribution of cycle latency between the first time a load is issued and its completion (Unspecified)
board.processor.cores9.core.lsq0.loadToUse::100-109            1      0.00%     93.23% # Distribution of cycle latency between the first time a load is issued and its completion (Unspecified)
board.processor.cores9.core.lsq0.loadToUse::110-119           19      0.06%     93.30% # Distribution of cycle latency between the first time a load is issued and its completion (Unspecified)
board.processor.cores9.core.lsq0.loadToUse::120-129            4      0.01%     93.31% # Distribution of cycle latency between the first time a load is issued and its completion (Unspecified)
board.processor.cores9.core.lsq0.loadToUse::130-139            1      0.00%     93.32% # Distribution of cycle latency between the first time a load is issued and its completion (Unspecified)
board.processor.cores9.core.lsq0.loadToUse::140-149           56      0.19%     93.51% # Distribution of cycle latency between the first time a load is issued and its completion (Unspecified)
board.processor.cores9.core.lsq0.loadToUse::150-159            7      0.02%     93.53% # Distribution of cycle latency between the first time a load is issued and its completion (Unspecified)
board.processor.cores9.core.lsq0.loadToUse::160-169            1      0.00%     93.54% # Distribution of cycle latency between the first time a load is issued and its completion (Unspecified)
board.processor.cores9.core.lsq0.loadToUse::170-179           46      0.16%     93.69% # Distribution of cycle latency between the first time a load is issued and its completion (Unspecified)
board.processor.cores9.core.lsq0.loadToUse::180-189            7      0.02%     93.72% # Distribution of cycle latency between the first time a load is issued and its completion (Unspecified)
board.processor.cores9.core.lsq0.loadToUse::200-209           50      0.17%     93.89% # Distribution of cycle latency between the first time a load is issued and its completion (Unspecified)
board.processor.cores9.core.lsq0.loadToUse::210-219            4      0.01%     93.90% # Distribution of cycle latency between the first time a load is issued and its completion (Unspecified)
board.processor.cores9.core.lsq0.loadToUse::230-239           65      0.22%     94.12% # Distribution of cycle latency between the first time a load is issued and its completion (Unspecified)
board.processor.cores9.core.lsq0.loadToUse::240-249           13      0.04%     94.17% # Distribution of cycle latency between the first time a load is issued and its completion (Unspecified)
board.processor.cores9.core.lsq0.loadToUse::260-269         1539      5.26%     99.43% # Distribution of cycle latency between the first time a load is issued and its completion (Unspecified)
board.processor.cores9.core.lsq0.loadToUse::270-279          164      0.56%     99.99% # Distribution of cycle latency between the first time a load is issued and its completion (Unspecified)
board.processor.cores9.core.lsq0.loadToUse::280-289            2      0.01%    100.00% # Distribution of cycle latency between the first time a load is issued and its completion (Unspecified)
board.processor.cores9.core.lsq0.loadToUse::min_value            2                       # Distribution of cycle latency between the first time a load is issued and its completion (Unspecified)
board.processor.cores9.core.lsq0.loadToUse::max_value          280                       # Distribution of cycle latency between the first time a load is issued and its completion (Unspecified)
board.processor.cores9.core.lsq0.loadToUse::total        29238                       # Distribution of cycle latency between the first time a load is issued and its completion (Unspecified)
board.processor.cores9.core.mmu.dtb.rdAccesses        45864                       # TLB accesses on read requests (Count)
board.processor.cores9.core.mmu.dtb.wrAccesses        16970                       # TLB accesses on write requests (Count)
board.processor.cores9.core.mmu.dtb.rdMisses           90                       # TLB misses on read requests (Count)
board.processor.cores9.core.mmu.dtb.wrMisses           13                       # TLB misses on write requests (Count)
board.processor.cores9.core.mmu.dtb.walker.power_state.pwrStateResidencyTicks::UNDEFINED    683921500                       # Cumulative time (in ticks) in various power states (Tick)
board.processor.cores9.core.mmu.itb.rdAccesses            0                       # TLB accesses on read requests (Count)
board.processor.cores9.core.mmu.itb.wrAccesses        39772                       # TLB accesses on write requests (Count)
board.processor.cores9.core.mmu.itb.rdMisses            0                       # TLB misses on read requests (Count)
board.processor.cores9.core.mmu.itb.wrMisses           76                       # TLB misses on write requests (Count)
board.processor.cores9.core.mmu.itb.walker.power_state.pwrStateResidencyTicks::UNDEFINED    683921500                       # Cumulative time (in ticks) in various power states (Tick)
board.processor.cores9.core.power_state.pwrStateResidencyTicks::ON    683921500                       # Cumulative time (in ticks) in various power states (Tick)
board.processor.cores9.core.rename.squashCycles         2175                       # Number of cycles rename is squashing (Cycle)
board.processor.cores9.core.rename.idleCycles        27993                       # Number of cycles rename is idle (Cycle)
board.processor.cores9.core.rename.blockCycles       618680                       # Number of cycles rename is blocking (Cycle)
board.processor.cores9.core.rename.serializeStallCycles            0                       # count of cycles rename stalled for serializing inst (Cycle)
board.processor.cores9.core.rename.runCycles        36032                       # Number of cycles rename is running (Cycle)
board.processor.cores9.core.rename.unblockCycles        23079                       # Number of cycles rename is unblocking (Cycle)
board.processor.cores9.core.rename.renamedInsts       294718                       # Number of instructions processed by rename (Count)
board.processor.cores9.core.rename.IQFullEvents        16480                       # Number of times rename has blocked due to IQ full (Count)
board.processor.cores9.core.rename.LQFullEvents           63                       # Number of times rename has blocked due to LQ full (Count)
board.processor.cores9.core.rename.SQFullEvents          383                       # Number of times rename has blocked due to SQ full (Count)
board.processor.cores9.core.rename.renamedOperands       392206                       # Number of destination operands rename has renamed (Count)
board.processor.cores9.core.rename.lookups       894288                       # Number of register rename lookups that rename has made (Count)
board.processor.cores9.core.rename.intLookups       419300                       # Number of integer rename lookups (Count)
board.processor.cores9.core.rename.fpLookups           21                       # Number of floating rename lookups (Count)
board.processor.cores9.core.rename.committedMaps       147147                       # Number of HB maps that are committed (Count)
board.processor.cores9.core.rename.undoneMaps       245059                       # Number of HB maps that are undone due to squashing (Count)
board.processor.cores9.core.rename.serializing            0                       # count of serializing insts renamed (Count)
board.processor.cores9.core.rename.tempSerializing            0                       # count of temporary serializing insts renamed (Count)
board.processor.cores9.core.rename.skidInsts        61882                       # count of insts added to the skid buffer (Count)
board.processor.cores9.core.rob.reads          960426                       # The number of ROB reads (Count)
board.processor.cores9.core.rob.writes         578478                       # The number of ROB writes (Count)
board.processor.cores9.core.thread_0.numInsts        71576                       # Number of Instructions committed (Count)
board.processor.cores9.core.thread_0.numOps       108575                       # Number of Ops committed (Count)
board.processor.cores9.core.thread_0.numMemRefs            0                       # Number of Memory References (Count)
board.workload.inst.arm                             0                       # number of arm instructions executed (Count)
board.workload.inst.quiesce                         0                       # number of quiesce instructions executed (Count)

---------- End Simulation Statistics   ----------
